/*--------------------------------*- C++ -*----------------------------------*\
| =========                 |                                                 |
| \\      /  F ield         | OpenFOAM: The Open Source CFD Toolbox           |
|  \\    /   O peration     | Version:  2.3.1                                 |
|   \\  /    A nd           | Web:      www.OpenFOAM.org                      |
|    \\/     M anipulation  |                                                 |
\*---------------------------------------------------------------------------*/
FoamFile
{
    version     2.0;
    format      ascii;
    class       dictionary;
    object      topoSetDict;
}

// * * * * * * * * * * * * * * * * * * * * * * * * * * * * * * * * * * * * * //

actions
(
    // FLUID
    {
        name    rotating;
        type    cellSet;
        action  new;
        source  boxToCell;
        sourceInfo
        {
            box (-0.1       -0.1          -0.006 ) (0.1            0.1       0.005);
        }
    }

    {
        name    rotating;
        type    cellZoneSet;
        action  new;
        source  setToCellZone;
        sourceInfo
        {
            set rotating;           // name of cellSet
        }
    }








);

// ************************************************************************* //
