/*--------------------------------*- C++ -*----------------------------------*\
| =========                 |                                                 |
| \\      /  F ield         | OpenFOAM: The Open Source CFD Toolbox           |
|  \\    /   O peration     | Version:  dev                                   |
|   \\  /    A nd           | Web:      www.OpenFOAM.org                      |
|    \\/     M anipulation  |                                                 |
\*---------------------------------------------------------------------------*/
FoamFile
{
    version     2.0;
    format      ascii;
    class       featureEdgeMesh;
    location    "constant/triSurface";
    object      inlet.eMesh;
}
// * * * * * * * * * * * * * * * * * * * * * * * * * * * * * * * * * * * * * //


// points:

44
(
(0.0155635 0.00191899 0.125)
(0.0152846 0.00197964 0.125)
(0.0158308 0.00181926 0.125)
(0.0160813 0.00168251 0.125)
(0.0165115 0.00130972 0.125)
(0.0163097 0.0015115 0.125)
(0.0168193 0.00083083 0.125)
(0.0166825 0.00108128 0.125)
(0.016919 0.000563465 0.125)
(0.0169796 0.00028463 0.125)
(0.017 2.02129e-18 0.125)
(0.0169796 -0.00028463 0.125)
(0.016919 -0.000563465 0.125)
(0.0168193 -0.00083083 0.125)
(0.0166825 -0.00108128 0.125)
(0.0165115 -0.00130972 0.125)
(0.0163097 -0.0015115 0.125)
(0.0160813 -0.00168251 0.125)
(0.0158308 -0.00181926 0.125)
(0.0155635 -0.00191899 0.125)
(0.0152846 -0.00197964 0.125)
(0.015 -0.002 0.125)
(0.0147154 -0.00197964 0.125)
(0.0144365 -0.00191899 0.125)
(0.0141692 -0.00181926 0.125)
(0.0139187 -0.00168251 0.125)
(0.0136903 -0.0015115 0.125)
(0.0134885 -0.00130972 0.125)
(0.0133175 -0.00108128 0.125)
(0.0131807 -0.00083083 0.125)
(0.013081 -0.000563465 0.125)
(0.0130204 -0.00028463 0.125)
(0.013 0 0.125)
(0.0130204 0.00028463 0.125)
(0.013081 0.000563465 0.125)
(0.0131807 0.00083083 0.125)
(0.0133175 0.00108128 0.125)
(0.0134885 0.00130972 0.125)
(0.0136903 0.0015115 0.125)
(0.0139187 0.00168251 0.125)
(0.0141692 0.00181926 0.125)
(0.0144365 0.00191899 0.125)
(0.0147154 0.00197964 0.125)
(0.015 0.002 0.125)
)


// edges:

44
(
(0 1)
(2 0)
(3 2)
(4 5)
(5 3)
(6 7)
(7 4)
(8 6)
(9 8)
(10 9)
(11 10)
(12 11)
(13 12)
(14 13)
(15 14)
(16 15)
(17 16)
(18 17)
(19 18)
(20 19)
(21 20)
(22 21)
(23 22)
(24 23)
(25 24)
(26 25)
(27 26)
(28 27)
(29 28)
(30 29)
(31 30)
(32 31)
(33 32)
(34 33)
(35 34)
(36 35)
(37 36)
(38 37)
(39 38)
(40 39)
(41 40)
(42 41)
(43 42)
(1 43)
)

// * * * * * * * * * * * * * * * * * * * * * * * * * * * * * * * * * * * * * //


// ************************************************************************* //
