/*--------------------------------*- C++ -*----------------------------------*\
| =========                 |                                                 |
| \\      /  F ield         | OpenFOAM: The Open Source CFD Toolbox           |
|  \\    /   O peration     | Version:  dev                                   |
|   \\  /    A nd           | Web:      www.OpenFOAM.org                      |
|    \\/     M anipulation  |                                                 |
\*---------------------------------------------------------------------------*/
FoamFile
{
    version     2.0;
    format      ascii;
    class       featureEdgeMesh;
    location    "constant/triSurface";
    object      outlet.eMesh;
}
// * * * * * * * * * * * * * * * * * * * * * * * * * * * * * * * * * * * * * //


// points:

119
(
(0.00275449 0.00417287 0.125)
(0.00236934 0.00440298 0.125)
(0.00115635 0.0022165 0.125)
(0.00143029 0.00205043 0.125)
(0.00429224 0.0025645 0.125)
(0.00404509 0.00293893 0.125)
(0.00190361 0.00162057 0.125)
(0.00209522 0.00136384 0.125)
(0.00311745 0.00390916 0.125)
(0.00168075 0.0018507 0.125)
(0.00376536 0.00328969 0.125)
(0.00345531 0.00361397 0.125)
(-0.00275449 0.00417287 0.125)
(-0.00311745 0.00390916 0.125)
(-0.00155873 0.00195458 0.125)
(-0.00129598 0.00213786 0.125)
(0.00404509 -0.00293893 0.125)
(0.00429224 -0.0025645 0.125)
(0.00225242 -0.00108471 0.125)
(0.00209522 -0.00136384 0.125)
(-0.00236934 0.00440298 0.125)
(-0.00101196 0.00228603 0.125)
(0.00450484 -0.00216942 0.125)
(-0.00196513 0.00459764 0.125)
(-0.00376536 -0.00328969 0.125)
(-0.00345531 -0.00361397 0.125)
(-0.00155873 -0.00195458 0.125)
(-0.00179587 -0.00173921 0.125)
(-0.00311745 -0.00390916 0.125)
(-0.00275449 -0.00417287 0.125)
(0.00468117 -0.00175687 0.125)
(-0.00200353 -0.00149528 0.125)
(-0.00404509 -0.00293893 0.125)
(-0.00429224 -0.0025645 0.125)
(0.00237264 -0.00078777 0.125)
(-0.00236934 -0.00440298 0.125)
(-0.00129598 -0.00213786 0.125)
(-0.0021783 -0.00122679 0.125)
(-0.00450484 -0.00216942 0.125)
(-0.00101196 -0.00228603 0.125)
(-0.00196513 -0.00459764 0.125)
(-0.00154508 -0.00475528 0.125)
(-0.00231729 -0.000938168 0.125)
(-0.00468117 -0.00175687 0.125)
(-0.000711319 -0.00239667 0.125)
(-0.0011126 -0.00487464 0.125)
(-0.00241824 -0.000634136 0.125)
(-0.00481981 -0.00133018 0.125)
(-0.00491965 -0.000892785 0.125)
(-0.000671166 -0.00495475 0.125)
(-0.000399 -0.00246795 0.125)
(-0.00497987 -0.000448196 0.125)
(-0.00247947 -0.000319693 0.125)
(-8.01289e-05 -0.00249872 0.125)
(-0.000224324 -0.00499497 0.125)
(0.000224324 -0.00499497 0.125)
(-0.00497987 0.000448196 0.125)
(-0.005 0 0.125)
(-0.00154508 0.00475528 0.125)
(-0.000711319 0.00239667 0.125)
(-0.0025 0 0.125)
(0.000240058 -0.00248845 0.125)
(0.000671166 -0.00495475 0.125)
(-0.00491965 0.000892785 0.125)
(-0.00247947 0.000319693 0.125)
(0.000556302 -0.00243732 0.125)
(0.0011126 -0.00487464 0.125)
(0.00154508 -0.00475528 0.125)
(-0.00481981 0.00133018 0.125)
(-0.00468117 0.00175687 0.125)
(-0.00241824 0.000634136 0.125)
(0.000863413 -0.00234617 0.125)
(0.00196513 -0.00459764 0.125)
(-0.00450484 0.00216942 0.125)
(-0.00231729 0.000938168 0.125)
(0.00115635 -0.0022165 0.125)
(0.00236934 -0.00440298 0.125)
(0.00275449 -0.00417287 0.125)
(-0.00429224 0.0025645 0.125)
(0.00481981 -0.00133018 0.125)
(-0.0021783 0.00122679 0.125)
(0.0024539 -0.000477897 0.125)
(0.00143029 -0.00205043 0.125)
(0.00311745 -0.00390916 0.125)
(-0.00404509 0.00293893 0.125)
(-0.00200353 0.00149528 0.125)
(-0.00376536 0.00328969 0.125)
(0.00168075 -0.0018507 0.125)
(0.00345531 -0.00361397 0.125)
(-0.0011126 0.00487464 0.125)
(-0.000399 0.00246795 0.125)
(-0.00179587 0.00173921 0.125)
(0.00491965 -0.000892785 0.125)
(-0.00345531 0.00361397 0.125)
(-8.01289e-05 0.00249872 0.125)
(-0.000671166 0.00495475 0.125)
(0.00497987 -0.000448196 0.125)
(0.00190361 -0.00162057 0.125)
(0.00249486 -0.000160176 0.125)
(-0.000224324 0.00499497 0.125)
(0.005 6.12323e-19 0.125)
(0.00249486 0.000160176 0.125)
(0.000224324 0.00499497 0.125)
(0.000240058 0.00248845 0.125)
(0.00376536 -0.00328969 0.125)
(0.00497987 0.000448196 0.125)
(0.0024539 0.000477897 0.125)
(0.000556302 0.00243732 0.125)
(0.000671166 0.00495475 0.125)
(0.00491965 0.000892785 0.125)
(0.0011126 0.00487464 0.125)
(0.00237264 0.00078777 0.125)
(0.00481981 0.00133018 0.125)
(0.00154508 0.00475528 0.125)
(0.000863413 0.00234617 0.125)
(0.00468117 0.00175687 0.125)
(0.00225242 0.00108471 0.125)
(0.00196513 0.00459764 0.125)
(0.00450484 0.00216942 0.125)
)


// edges:

119
(
(0 1)
(2 3)
(4 5)
(6 7)
(8 0)
(3 9)
(5 10)
(11 8)
(10 11)
(9 6)
(12 13)
(14 15)
(16 17)
(18 19)
(20 12)
(15 21)
(17 22)
(23 20)
(24 25)
(26 27)
(28 29)
(25 28)
(22 30)
(27 31)
(32 24)
(33 32)
(34 18)
(29 35)
(36 26)
(31 37)
(38 33)
(39 36)
(40 41)
(35 40)
(37 42)
(43 38)
(44 39)
(41 45)
(42 46)
(47 43)
(48 47)
(45 49)
(50 44)
(51 48)
(46 52)
(53 50)
(54 55)
(49 54)
(56 57)
(58 23)
(21 59)
(57 51)
(52 60)
(61 53)
(55 62)
(63 56)
(60 64)
(65 61)
(66 67)
(62 66)
(68 63)
(69 68)
(64 70)
(71 65)
(67 72)
(73 69)
(70 74)
(75 71)
(76 77)
(72 76)
(78 73)
(30 79)
(74 80)
(81 34)
(82 75)
(77 83)
(84 78)
(80 85)
(86 84)
(87 82)
(83 88)
(89 58)
(59 90)
(85 91)
(79 92)
(93 86)
(90 94)
(95 89)
(92 96)
(97 87)
(98 81)
(99 95)
(96 100)
(101 98)
(91 14)
(102 99)
(94 103)
(88 104)
(100 105)
(106 101)
(103 107)
(108 102)
(105 109)
(13 93)
(110 108)
(111 106)
(109 112)
(113 110)
(107 114)
(112 115)
(104 16)
(19 97)
(116 111)
(117 113)
(114 2)
(115 118)
(1 117)
(118 4)
(7 116)
)

// * * * * * * * * * * * * * * * * * * * * * * * * * * * * * * * * * * * * * //


// ************************************************************************* //
