/*--------------------------------*- C++ -*----------------------------------*\
| =========                 |                                                 |
| \\      /  F ield         | OpenFOAM: The Open Source CFD Toolbox           |
|  \\    /   O peration     | Version:  dev                                   |
|   \\  /    A nd           | Web:      www.OpenFOAM.org                      |
|    \\/     M anipulation  |                                                 |
\*---------------------------------------------------------------------------*/
FoamFile
{
    version     2.0;
    format      ascii;
    class       featureEdgeMesh;
    location    "constant/triSurface";
    object      rotating.eMesh;
}
// * * * * * * * * * * * * * * * * * * * * * * * * * * * * * * * * * * * * * //


// points:

160
(
(-0.0164491 0.00129458 0.1)
(-0.0165 0 0.1)
(-0.0162969 0.00258117 0.1)
(-0.0160441 0.00385185 0.1)
(-0.0156924 0.00509878 0.1)
(-0.015244 0.00631428 0.1)
(-0.0147016 0.00749084 0.1)
(-0.0140686 0.00862123 0.1)
(-0.0133488 0.00969846 0.1)
(-0.0125467 0.0107159 0.1)
(-0.0116673 0.0116673 0.1)
(-0.0107159 0.0125467 0.1)
(-0.00969846 0.0133488 0.1)
(-0.00862123 0.0140686 0.1)
(-0.00749084 0.0147016 0.1)
(-0.00631428 0.015244 0.1)
(-0.00509878 0.0156924 0.1)
(-0.00385185 0.0160441 0.1)
(-0.00258117 0.0162969 0.1)
(-0.00129458 0.0164491 0.1)
(-1.01033e-18 0.0165 0.1)
(0.00129458 0.0164491 0.1)
(0.00258117 0.0162969 0.1)
(0.00385185 0.0160441 0.1)
(0.00509878 0.0156924 0.1)
(0.00631428 0.015244 0.1)
(0.00749084 0.0147016 0.1)
(0.00862123 0.0140686 0.1)
(0.00969846 0.0133488 0.1)
(0.0107159 0.0125467 0.1)
(0.0116673 0.0116673 0.1)
(0.0125467 0.0107159 0.1)
(0.0133488 0.00969846 0.1)
(0.0140686 0.00862123 0.1)
(0.0147016 0.00749084 0.1)
(0.015244 0.00631428 0.1)
(0.0156924 0.00509878 0.1)
(0.0160441 0.00385185 0.1)
(0.0162969 0.00258117 0.1)
(0.0164491 0.00129458 0.1)
(0.0165 2.02067e-18 0.1)
(0.0164491 -0.00129458 0.1)
(0.0162969 -0.00258117 0.1)
(0.0160441 -0.00385185 0.1)
(0.0156924 -0.00509878 0.1)
(0.015244 -0.00631428 0.1)
(0.0147016 -0.00749084 0.1)
(0.0140686 -0.00862123 0.1)
(0.0133488 -0.00969846 0.1)
(0.0125467 -0.0107159 0.1)
(0.0116673 -0.0116673 0.1)
(0.0107159 -0.0125467 0.1)
(0.00969846 -0.0133488 0.1)
(0.00862123 -0.0140686 0.1)
(0.00749084 -0.0147016 0.1)
(0.00631428 -0.015244 0.1)
(0.00509878 -0.0156924 0.1)
(0.00385185 -0.0160441 0.1)
(0.00258117 -0.0162969 0.1)
(0.00129458 -0.0164491 0.1)
(3.031e-18 -0.0165 0.1)
(-0.00129458 -0.0164491 0.1)
(-0.00258117 -0.0162969 0.1)
(-0.00385185 -0.0160441 0.1)
(-0.00509878 -0.0156924 0.1)
(-0.00631428 -0.015244 0.1)
(-0.00749084 -0.0147016 0.1)
(-0.00862123 -0.0140686 0.1)
(-0.00969846 -0.0133488 0.1)
(-0.0107159 -0.0125467 0.1)
(-0.0116673 -0.0116673 0.1)
(-0.0125467 -0.0107159 0.1)
(-0.0133488 -0.00969846 0.1)
(-0.0140686 -0.00862123 0.1)
(-0.0147016 -0.00749084 0.1)
(-0.015244 -0.00631428 0.1)
(-0.0156924 -0.00509878 0.1)
(-0.0160441 -0.00385185 0.1)
(-0.0162969 -0.00258117 0.1)
(-0.0164491 -0.00129458 0.1)
(-0.0164491 0.00129458 0.003)
(-0.0165 0 0.003)
(-0.0162969 0.00258117 0.003)
(-0.0160441 0.00385185 0.003)
(-0.0156924 0.00509878 0.003)
(-0.015244 0.00631428 0.003)
(-0.0147016 0.00749084 0.003)
(-0.0140686 0.00862123 0.003)
(-0.0133488 0.00969846 0.003)
(-0.0125467 0.0107159 0.003)
(-0.0116673 0.0116673 0.003)
(-0.0107159 0.0125467 0.003)
(-0.00969846 0.0133488 0.003)
(-0.00862123 0.0140686 0.003)
(-0.00749084 0.0147016 0.003)
(-0.00631428 0.015244 0.003)
(-0.00509878 0.0156924 0.003)
(-0.00385185 0.0160441 0.003)
(-0.00258117 0.0162969 0.003)
(-0.00129458 0.0164491 0.003)
(-1.01033e-18 0.0165 0.003)
(0.00129458 0.0164491 0.003)
(0.00258117 0.0162969 0.003)
(0.00385185 0.0160441 0.003)
(0.00509878 0.0156924 0.003)
(0.00631428 0.015244 0.003)
(0.00749084 0.0147016 0.003)
(0.00862123 0.0140686 0.003)
(0.00969846 0.0133488 0.003)
(0.0107159 0.0125467 0.003)
(0.0116673 0.0116673 0.003)
(0.0125467 0.0107159 0.003)
(0.0133488 0.00969846 0.003)
(0.0140686 0.00862123 0.003)
(0.0147016 0.00749084 0.003)
(0.015244 0.00631428 0.003)
(0.0156924 0.00509878 0.003)
(0.0160441 0.00385185 0.003)
(0.0162969 0.00258117 0.003)
(0.0164491 0.00129458 0.003)
(0.0165 2.02067e-18 0.003)
(0.0164491 -0.00129458 0.003)
(0.0162969 -0.00258117 0.003)
(0.0160441 -0.00385185 0.003)
(0.0156924 -0.00509878 0.003)
(0.015244 -0.00631428 0.003)
(0.0147016 -0.00749084 0.003)
(0.0140686 -0.00862123 0.003)
(0.0133488 -0.00969846 0.003)
(0.0125467 -0.0107159 0.003)
(0.0116673 -0.0116673 0.003)
(0.0107159 -0.0125467 0.003)
(0.00969846 -0.0133488 0.003)
(0.00862123 -0.0140686 0.003)
(0.00749084 -0.0147016 0.003)
(0.00631428 -0.015244 0.003)
(0.00509878 -0.0156924 0.003)
(0.00385185 -0.0160441 0.003)
(0.00258117 -0.0162969 0.003)
(0.00129458 -0.0164491 0.003)
(3.031e-18 -0.0165 0.003)
(-0.00129458 -0.0164491 0.003)
(-0.00258117 -0.0162969 0.003)
(-0.00385185 -0.0160441 0.003)
(-0.00509878 -0.0156924 0.003)
(-0.00631428 -0.015244 0.003)
(-0.00749084 -0.0147016 0.003)
(-0.00862123 -0.0140686 0.003)
(-0.00969846 -0.0133488 0.003)
(-0.0107159 -0.0125467 0.003)
(-0.0116673 -0.0116673 0.003)
(-0.0125467 -0.0107159 0.003)
(-0.0133488 -0.00969846 0.003)
(-0.0140686 -0.00862123 0.003)
(-0.0147016 -0.00749084 0.003)
(-0.015244 -0.00631428 0.003)
(-0.0156924 -0.00509878 0.003)
(-0.0160441 -0.00385185 0.003)
(-0.0162969 -0.00258117 0.003)
(-0.0164491 -0.00129458 0.003)
)


// edges:

160
(
(0 1)
(2 0)
(3 2)
(4 3)
(5 4)
(6 5)
(7 6)
(8 7)
(9 8)
(10 9)
(11 10)
(12 11)
(13 12)
(14 13)
(15 14)
(16 15)
(17 16)
(18 17)
(19 18)
(20 19)
(21 20)
(22 21)
(23 22)
(24 23)
(25 24)
(26 25)
(27 26)
(28 27)
(29 28)
(30 29)
(31 30)
(32 31)
(33 32)
(34 33)
(35 34)
(36 35)
(37 36)
(38 37)
(39 38)
(40 39)
(41 40)
(42 41)
(43 42)
(44 43)
(45 44)
(46 45)
(47 46)
(48 47)
(49 48)
(50 49)
(51 50)
(52 51)
(53 52)
(54 53)
(55 54)
(56 55)
(57 56)
(58 57)
(59 58)
(60 59)
(61 60)
(62 61)
(63 62)
(64 63)
(65 64)
(66 65)
(67 66)
(68 67)
(69 68)
(70 69)
(71 70)
(72 71)
(73 72)
(74 73)
(75 74)
(76 75)
(77 76)
(78 77)
(79 78)
(1 79)
(80 81)
(82 80)
(83 82)
(84 83)
(85 84)
(86 85)
(87 86)
(88 87)
(89 88)
(90 89)
(91 90)
(92 91)
(93 92)
(94 93)
(95 94)
(96 95)
(97 96)
(98 97)
(99 98)
(100 99)
(101 100)
(102 101)
(103 102)
(104 103)
(105 104)
(106 105)
(107 106)
(108 107)
(109 108)
(110 109)
(111 110)
(112 111)
(113 112)
(114 113)
(115 114)
(116 115)
(117 116)
(118 117)
(119 118)
(120 119)
(121 120)
(122 121)
(123 122)
(124 123)
(125 124)
(126 125)
(127 126)
(128 127)
(129 128)
(130 129)
(131 130)
(132 131)
(133 132)
(134 133)
(135 134)
(136 135)
(137 136)
(138 137)
(139 138)
(140 139)
(141 140)
(142 141)
(143 142)
(144 143)
(145 144)
(146 145)
(147 146)
(148 147)
(149 148)
(150 149)
(151 150)
(152 151)
(153 152)
(154 153)
(155 154)
(156 155)
(157 156)
(158 157)
(159 158)
(81 159)
)

// * * * * * * * * * * * * * * * * * * * * * * * * * * * * * * * * * * * * * //


// ************************************************************************* //
