/*--------------------------------*- C++ -*----------------------------------*\
| =========                 |                                                 |
| \\      /  F ield         | OpenFOAM: The Open Source CFD Toolbox           |
|  \\    /   O peration     | Version:  dev                                   |
|   \\  /    A nd           | Web:      www.OpenFOAM.org                      |
|    \\/     M anipulation  |                                                 |
\*---------------------------------------------------------------------------*/
FoamFile
{
    version     2.0;
    format      ascii;
    class       featureEdgeMesh;
    location    "constant/triSurface";
    object      shaftRotating.eMesh;
}
// * * * * * * * * * * * * * * * * * * * * * * * * * * * * * * * * * * * * * //


// points:

118
(
(0.00613958 0.001 0.00602541)
(0.00631322 0.001 0.00701022)
(-0.0037085 0.001 0.0077619)
(-0.0037085 0.014 0.0077619)
(0.00613958 0.014 0.00602541)
(0.00631322 0.014 0.00701022)
(-0.00353485 0.001 0.0087467)
(-0.00353485 0.014 0.0087467)
(-0.00631322 -0.001 0.00701022)
(-0.00631322 -0.014 0.00701022)
(0.00353485 -0.014 0.0087467)
(0.00353485 -0.001 0.0087467)
(-0.00613958 -0.001 0.00602541)
(-0.00613958 -0.014 0.00602541)
(0.0037085 -0.014 0.0077619)
(0.0037085 -0.001 0.0077619)
(0.00232444 0.000920311 0.005)
(0.00232444 -0.000920311 0.005)
(-0.00229129 0.001 0.00852743)
(-0.00229129 0.001 0.007512)
(0.00229129 0.001 0.0077194)
(0.00229129 0.001 0.00670397)
(0.00229129 -0.001 0.00852743)
(0.00229129 -0.001 0.007512)
(-0.00229129 -0.001 0.0077194)
(-0.00229129 -0.001 0.00670397)
(-0.00206016 0.00141625 0.00848667)
(-0.00175431 0.00178113 0.00843274)
(-0.00137863 0.00208552 0.0083665)
(-0.00137863 0.00208552 0.00735108)
(-0.00175431 0.00178113 0.00741732)
(-0.000951382 0.0023119 0.00829117)
(-0.000488548 0.0024518 0.00820956)
(-7.43924e-06 0.00249999 0.00812472)
(0.000473948 0.00245466 0.00803984)
(0.000937606 0.00231752 0.00795809)
(0.000937606 0.00231752 0.00694266)
(0.000473948 0.00245466 0.00702442)
(0.00174367 0.00179153 0.00781596)
(0.00205593 0.00142237 0.0077609)
(0.00205593 0.00142237 0.00674547)
(0.00206016 -0.00141625 0.00848667)
(0.00206016 -0.00141625 0.00747125)
(0.00175431 -0.00178113 0.00843274)
(0.00137863 -0.00208552 0.0083665)
(0.000951382 -0.0023119 0.00829117)
(0.000488548 -0.0024518 0.00820956)
(0.000488548 -0.0024518 0.00719413)
(0.000951382 -0.0023119 0.00727574)
(7.43924e-06 -0.00249999 0.00812472)
(-0.000937606 -0.00231752 0.00795809)
(-0.00136619 -0.00209369 0.00788252)
(-0.00174367 -0.00179153 0.00781596)
(-0.00174367 -0.00179153 0.00680053)
(-0.00136619 -0.00209369 0.00686709)
(-0.00205593 -0.00142237 0.0077609)
(0.00174367 0.00179153 0.00680053)
(0.00136619 0.00209369 0.00686709)
(-7.43924e-06 0.00249999 0.0071093)
(-0.000488548 0.0024518 0.00719413)
(-0.000951382 0.0023119 0.00727574)
(-0.00206016 0.00141625 0.00747125)
(0.00136619 0.00209369 0.00788252)
(-0.000473948 -0.00245466 0.00803984)
(-0.00205593 -0.00142237 0.00674547)
(-0.000937606 -0.00231752 0.00694266)
(-0.000473948 -0.00245466 0.00702442)
(7.43924e-06 -0.00249999 0.0071093)
(0.00137863 -0.00208552 0.00735108)
(0.00175431 -0.00178113 0.00741732)
(-0.00242146 0.000621725 0.1)
(-0.0025 0 0.1)
(-0.00219077 0.00120438 0.1)
(-0.00182242 0.00171137 0.1)
(-0.00133957 0.00211082 0.1)
(-0.000772542 0.00237764 0.1)
(-0.000156976 0.00249507 0.1)
(0.000468453 0.00245572 0.1)
(0.00106445 0.00226207 0.1)
(0.00159356 0.00192628 0.1)
(0.00202254 0.00146946 0.1)
(0.00232444 0.000920311 0.1)
(0.00248029 0.000313333 0.1)
(0.00248029 -0.000313333 0.1)
(0.00232444 -0.000920311 0.1)
(0.00202254 -0.00146946 0.1)
(0.00159356 -0.00192628 0.1)
(0.00106445 -0.00226207 0.1)
(0.000468453 -0.00245572 0.1)
(-0.000156976 -0.00249507 0.1)
(-0.000772542 -0.00237764 0.1)
(-0.00133957 -0.00211082 0.1)
(-0.00182242 -0.00171137 0.1)
(-0.00219077 -0.00120438 0.1)
(-0.00242146 -0.000621725 0.1)
(-0.00242146 0.000621725 0.005)
(-0.0025 0 0.005)
(-0.00219077 0.00120438 0.005)
(-0.00182242 0.00171137 0.005)
(-0.00133957 0.00211082 0.005)
(-0.000772542 0.00237764 0.005)
(-0.000156976 0.00249507 0.005)
(0.000468453 0.00245572 0.005)
(0.00106445 0.00226207 0.005)
(0.00159356 0.00192628 0.005)
(0.00202254 0.00146946 0.005)
(0.00248029 0.000313333 0.005)
(0.00248029 -0.000313333 0.005)
(0.00202254 -0.00146946 0.005)
(0.00159356 -0.00192628 0.005)
(0.00106445 -0.00226207 0.005)
(0.000468453 -0.00245572 0.005)
(-0.000156976 -0.00249507 0.005)
(-0.000772542 -0.00237764 0.005)
(-0.00133957 -0.00211082 0.005)
(-0.00182242 -0.00171137 0.005)
(-0.00219077 -0.00120438 0.005)
(-0.00242146 -0.000621725 0.005)
)


// edges:

134
(
(20 16)
(17 22)
(23 17)
(21 0)
(0 1)
(1 20)
(19 2)
(2 3)
(3 4)
(4 0)
(5 1)
(4 5)
(6 18)
(7 6)
(5 7)
(3 7)
(2 6)
(8 9)
(24 8)
(9 10)
(11 22)
(10 11)
(12 8)
(25 12)
(13 9)
(12 13)
(14 10)
(13 14)
(15 23)
(11 15)
(14 15)
(95 96)
(97 95)
(98 97)
(99 98)
(100 99)
(101 100)
(102 101)
(103 102)
(104 103)
(105 104)
(16 105)
(106 16)
(107 106)
(17 107)
(108 17)
(109 108)
(110 109)
(111 110)
(112 111)
(113 112)
(114 113)
(115 114)
(116 115)
(117 116)
(96 117)
(16 21)
(70 71)
(72 70)
(73 72)
(74 73)
(75 74)
(76 75)
(77 76)
(78 77)
(79 78)
(80 79)
(81 80)
(82 81)
(83 82)
(84 83)
(85 84)
(86 85)
(87 86)
(88 87)
(89 88)
(90 89)
(91 90)
(92 91)
(93 92)
(94 93)
(71 94)
(19 18)
(26 27)
(27 28)
(29 30)
(28 31)
(32 33)
(33 34)
(34 35)
(36 37)
(38 39)
(39 20)
(21 40)
(21 20)
(22 23)
(22 41)
(42 23)
(41 43)
(44 45)
(45 46)
(47 48)
(46 49)
(50 51)
(51 52)
(53 54)
(52 55)
(24 25)
(40 56)
(56 57)
(57 36)
(37 58)
(58 59)
(59 60)
(60 29)
(30 61)
(61 19)
(62 38)
(35 62)
(31 32)
(18 26)
(55 24)
(63 50)
(49 63)
(43 44)
(25 64)
(64 53)
(54 65)
(65 66)
(66 67)
(67 47)
(48 68)
(68 69)
(69 42)
)

// * * * * * * * * * * * * * * * * * * * * * * * * * * * * * * * * * * * * * //


// ************************************************************************* //
