/*--------------------------------*- C++ -*----------------------------------*\
| =========                 |                                                 |
| \\      /  F ield         | OpenFOAM: The Open Source CFD Toolbox           |
|  \\    /   O peration     | Version:  dev                                   |
|   \\  /    A nd           | Web:      www.OpenFOAM.org                      |
|    \\/     M anipulation  |                                                 |
\*---------------------------------------------------------------------------*/
FoamFile
{
    version     2.0;
    format      ascii;
    class       featureEdgeMesh;
    location    "constant/triSurface";
    object      shaftStatic.eMesh;
}
// * * * * * * * * * * * * * * * * * * * * * * * * * * * * * * * * * * * * * //


// points:

124
(
(-0.00248717 0.000252921 0.1)
(-0.0025 0 0.1)
(-0.0025 0 0.125)
(-0.00248717 0.000252921 0.125)
(-0.00244882 0.000503246 0.1)
(-0.00244882 0.000503246 0.125)
(-0.00238535 0.000748408 0.1)
(-0.00238535 0.000748408 0.125)
(-0.00229739 0.00098589 0.1)
(-0.00229739 0.00098589 0.125)
(-0.00218587 0.00121325 0.1)
(-0.00218587 0.00121325 0.125)
(-0.00205191 0.00142817 0.1)
(-0.00205191 0.00142817 0.125)
(-0.0018969 0.00162843 0.1)
(-0.0018969 0.00162843 0.125)
(-0.00172242 0.00181198 0.1)
(-0.00172242 0.00181198 0.125)
(-0.00153026 0.00197694 0.1)
(-0.00153026 0.00197694 0.125)
(-0.00132241 0.00212161 0.1)
(-0.00132241 0.00212161 0.125)
(-0.00110098 0.00224451 0.1)
(-0.00110098 0.00224451 0.125)
(-0.000868263 0.00234438 0.125)
(-0.000868263 0.00234438 0.1)
(-0.000626631 0.00242019 0.125)
(-0.000626631 0.00242019 0.1)
(-0.000378569 0.00247117 0.125)
(-0.000378569 0.00247117 0.1)
(-0.000126623 0.00249679 0.125)
(-0.000126623 0.00249679 0.1)
(0.000126623 0.00249679 0.125)
(0.000126623 0.00249679 0.1)
(0.000378569 0.00247117 0.125)
(0.000378569 0.00247117 0.1)
(0.000626631 0.00242019 0.1)
(0.000626631 0.00242019 0.125)
(0.000868263 0.00234438 0.1)
(0.000868263 0.00234438 0.125)
(0.00110098 0.00224451 0.1)
(0.00110098 0.00224451 0.125)
(0.00132241 0.00212161 0.1)
(0.00132241 0.00212161 0.125)
(0.00153026 0.00197694 0.1)
(0.00153026 0.00197694 0.125)
(0.00172242 0.00181198 0.1)
(0.00172242 0.00181198 0.125)
(0.0018969 0.00162843 0.1)
(0.0018969 0.00162843 0.125)
(0.00205191 0.00142817 0.1)
(0.00205191 0.00142817 0.125)
(0.00218587 0.00121325 0.1)
(0.00218587 0.00121325 0.125)
(0.00229739 0.00098589 0.1)
(0.00229739 0.00098589 0.125)
(0.00238535 0.000748408 0.1)
(0.00238535 0.000748408 0.125)
(0.00244882 0.000503246 0.1)
(0.00244882 0.000503246 0.125)
(0.00248717 0.000252921 0.1)
(0.00248717 0.000252921 0.125)
(0.0025 3.06162e-19 0.1)
(0.0025 3.06162e-19 0.125)
(0.00248717 -0.000252921 0.1)
(0.00248717 -0.000252921 0.125)
(0.00244882 -0.000503246 0.1)
(0.00244882 -0.000503246 0.125)
(0.00238535 -0.000748408 0.1)
(0.00238535 -0.000748408 0.125)
(0.00229739 -0.00098589 0.1)
(0.00229739 -0.00098589 0.125)
(0.00218587 -0.00121325 0.1)
(0.00218587 -0.00121325 0.125)
(0.00205191 -0.00142817 0.125)
(0.00205191 -0.00142817 0.1)
(0.0018969 -0.00162843 0.125)
(0.0018969 -0.00162843 0.1)
(0.00172242 -0.00181198 0.125)
(0.00172242 -0.00181198 0.1)
(0.00153026 -0.00197694 0.125)
(0.00153026 -0.00197694 0.1)
(0.00132241 -0.00212161 0.125)
(0.00132241 -0.00212161 0.1)
(0.00110098 -0.00224451 0.125)
(0.00110098 -0.00224451 0.1)
(0.000868263 -0.00234438 0.1)
(0.000868263 -0.00234438 0.125)
(0.000626631 -0.00242019 0.1)
(0.000626631 -0.00242019 0.125)
(0.000378569 -0.00247117 0.125)
(0.000378569 -0.00247117 0.1)
(0.000126623 -0.00249679 0.125)
(0.000126623 -0.00249679 0.1)
(-0.000126623 -0.00249679 0.125)
(-0.000126623 -0.00249679 0.1)
(-0.000378569 -0.00247117 0.125)
(-0.000378569 -0.00247117 0.1)
(-0.000626631 -0.00242019 0.125)
(-0.000626631 -0.00242019 0.1)
(-0.000868263 -0.00234438 0.125)
(-0.000868263 -0.00234438 0.1)
(-0.00110098 -0.00224451 0.125)
(-0.00110098 -0.00224451 0.1)
(-0.00132241 -0.00212161 0.125)
(-0.00132241 -0.00212161 0.1)
(-0.00153026 -0.00197694 0.125)
(-0.00153026 -0.00197694 0.1)
(-0.00172242 -0.00181198 0.125)
(-0.00172242 -0.00181198 0.1)
(-0.0018969 -0.00162843 0.125)
(-0.0018969 -0.00162843 0.1)
(-0.00205191 -0.00142817 0.125)
(-0.00205191 -0.00142817 0.1)
(-0.00218587 -0.00121325 0.125)
(-0.00218587 -0.00121325 0.1)
(-0.00229739 -0.00098589 0.125)
(-0.00229739 -0.00098589 0.1)
(-0.00238535 -0.000748408 0.125)
(-0.00238535 -0.000748408 0.1)
(-0.00244882 -0.000503246 0.125)
(-0.00244882 -0.000503246 0.1)
(-0.00248717 -0.000252921 0.125)
(-0.00248717 -0.000252921 0.1)
)


// edges:

124
(
(0 1)
(2 3)
(4 0)
(3 5)
(6 4)
(5 7)
(8 6)
(7 9)
(10 8)
(9 11)
(12 10)
(11 13)
(14 12)
(13 15)
(16 14)
(15 17)
(18 16)
(17 19)
(20 18)
(19 21)
(22 20)
(21 23)
(23 24)
(25 22)
(24 26)
(27 25)
(26 28)
(29 27)
(28 30)
(31 29)
(30 32)
(33 31)
(32 34)
(35 33)
(36 35)
(34 37)
(38 36)
(37 39)
(40 38)
(39 41)
(42 40)
(41 43)
(44 42)
(43 45)
(46 44)
(45 47)
(48 46)
(47 49)
(50 48)
(49 51)
(52 50)
(51 53)
(54 52)
(53 55)
(56 54)
(55 57)
(58 56)
(57 59)
(60 58)
(59 61)
(62 60)
(61 63)
(64 62)
(63 65)
(66 64)
(65 67)
(68 66)
(67 69)
(70 68)
(69 71)
(72 70)
(71 73)
(73 74)
(75 72)
(74 76)
(77 75)
(76 78)
(79 77)
(78 80)
(81 79)
(80 82)
(83 81)
(82 84)
(85 83)
(86 85)
(84 87)
(88 86)
(87 89)
(89 90)
(91 88)
(90 92)
(93 91)
(92 94)
(95 93)
(94 96)
(97 95)
(96 98)
(99 97)
(98 100)
(101 99)
(100 102)
(103 101)
(102 104)
(105 103)
(104 106)
(107 105)
(106 108)
(109 107)
(108 110)
(111 109)
(110 112)
(113 111)
(112 114)
(115 113)
(114 116)
(117 115)
(116 118)
(119 117)
(118 120)
(121 119)
(120 122)
(123 121)
(1 123)
(122 2)
)

// * * * * * * * * * * * * * * * * * * * * * * * * * * * * * * * * * * * * * //


// ************************************************************************* //
