/*--------------------------------*- C++ -*----------------------------------*\
| =========                 |                                                 |
| \\      /  F ield         | OpenFOAM: The Open Source CFD Toolbox           |
|  \\    /   O peration     | Version:  plus                                  |
|   \\  /    A nd           | Web:      www.OpenFOAM.com                      |
|    \\/     M anipulation  |                                                 |
\*---------------------------------------------------------------------------*/
FoamFile
{
    version     2.0;
    format      ascii;
    class       dictionary;
    location    "constant";
    object      particleProperties;
}
// * * * * * * * * * * * * * * * * * * * * * * * * * * * * * * * * * * * * * //

solution
{
    active          true;
    coupled         true;
    transient       yes;
    cellValueSourceCorrection off;

    maxCo           1.0;

    interpolationSchemes
    {
        rho         cell;
        U           cellPoint;
        mu          cell;
        gradAlpha   cellPoint;
    }

    averagingMethod dual;

    integrationSchemes
    {
        U               Euler;
    }

    sourceTerms
    {
        schemes
        {
            U           semiImplicit 1;
        }
    }
}

constantProperties
{
    rho0            700;
    alphaMax        0.9;
}

subModels
{
    particleForces
    {
        WenYuDrag
        {
            alphac      alphac;
        }
        gravity;
        interface
        {
            C            -10;
            alpha        alpha.water;
        }
    }

    injectionModels
    {
        model1
        {
            type            manualInjection;
            massTotal       0;
            parcelBasisType fixed;
            nParticle       1;
            SOI             0;
            positionsFile   "kinematicCloudPositions";
            U0              (0 0 0);
            sizeDistribution
            {
                type        fixedValue;
                fixedValueDistribution
                {
                    value   0.001;
                }
            }
        }
    }

    dispersionModel none;

    patchInteractionModel localInteraction;

    localInteractionCoeffs
    {
        patches
        (
            vessel
            {
                type rebound;
                e    0.97;
                mu   0.09;
            }
            shaftStatic
            {
                type rebound;
                e    0.97;
                mu   0.09;
            }
            shaftRotating
            {
                type rebound;
                e    0.97;
                mu   0.09;
            }
            inlet
            {
                type rebound;
                e    0.97;
                mu   0.09;
            }
            outlet
            {
                type rebound;
                e    0.97;
                mu   0.09;
            }
        );
    }

    heatTransferModel none;

    surfaceFilmModel none;

    packingModel explicit;

    explicitCoeffs
    {
        particleStressModel
        {
            type HarrisCrighton;
            alphaPacked 0.65;
            pSolid 10.0;
            beta 2.0;
            eps 1.0e-7;
        }
        correctionLimitingMethod
        {
            type absolute;
            e 0.9;
        }
    }

    implicitCoeffs
    {
        alphaMin 0.0001;
        rhoMin 1.0;
        applyLimiting true;
        applyGravity false;
        particleStressModel
        {
            type HarrisCrighton;
            alphaPacked 0.65;
            pSolid 5.0;
            beta 2.0;
            eps 1.0e-2;
        }
    }

    dampingModel none; //relaxation;

    relaxationCoeffs
    {
        timeScaleModel
        {
            type nonEquilibrium;
            alphaPacked 0.65;
            e 0.9;
        }
    }

    isotropyModel stochastic;

    stochasticCoeffs
    {
        timeScaleModel
        {
            type isotropic;
            alphaPacked 0.65;
            e 0.9;
        }
    }

    stochasticCollisionModel none;

    radiation off;
}


cloudFunctions
{}


// ************************************************************************* //
