/*--------------------------------*- C++ -*----------------------------------*\
| =========                 |                                                 |
| \\      /  F ield         | OpenFOAM: The Open Source CFD Toolbox           |
|  \\    /   O peration     | Version:  dev                                   |
|   \\  /    A nd           | Web:      www.OpenFOAM.org                      |
|    \\/     M anipulation  |                                                 |
\*---------------------------------------------------------------------------*/
FoamFile
{
    version     2.0;
    format      ascii;
    class       extendedFeatureEdgeMesh;
    location    "constant/extendedFeatureEdgeMesh";
    object      inlet.extendedFeatureEdgeMesh;
}
// * * * * * * * * * * * * * * * * * * * * * * * * * * * * * * * * * * * * * //

// points

44
(
(0.0155635 0.00191899 0.125)
(0.0152846 0.00197964 0.125)
(0.0158308 0.00181926 0.125)
(0.0160813 0.00168251 0.125)
(0.0165115 0.00130972 0.125)
(0.0163097 0.0015115 0.125)
(0.0168193 0.00083083 0.125)
(0.0166825 0.00108128 0.125)
(0.016919 0.000563465 0.125)
(0.0169796 0.00028463 0.125)
(0.017 2.02129e-18 0.125)
(0.0169796 -0.00028463 0.125)
(0.016919 -0.000563465 0.125)
(0.0168193 -0.00083083 0.125)
(0.0166825 -0.00108128 0.125)
(0.0165115 -0.00130972 0.125)
(0.0163097 -0.0015115 0.125)
(0.0160813 -0.00168251 0.125)
(0.0158308 -0.00181926 0.125)
(0.0155635 -0.00191899 0.125)
(0.0152846 -0.00197964 0.125)
(0.015 -0.002 0.125)
(0.0147154 -0.00197964 0.125)
(0.0144365 -0.00191899 0.125)
(0.0141692 -0.00181926 0.125)
(0.0139187 -0.00168251 0.125)
(0.0136903 -0.0015115 0.125)
(0.0134885 -0.00130972 0.125)
(0.0133175 -0.00108128 0.125)
(0.0131807 -0.00083083 0.125)
(0.013081 -0.000563465 0.125)
(0.0130204 -0.00028463 0.125)
(0.013 0 0.125)
(0.0130204 0.00028463 0.125)
(0.013081 0.000563465 0.125)
(0.0131807 0.00083083 0.125)
(0.0133175 0.00108128 0.125)
(0.0134885 0.00130972 0.125)
(0.0136903 0.0015115 0.125)
(0.0139187 0.00168251 0.125)
(0.0141692 0.00181926 0.125)
(0.0144365 0.00191899 0.125)
(0.0147154 0.00197964 0.125)
(0.015 0.002 0.125)
)

// edges

44
(
(0 1)
(2 0)
(3 2)
(4 5)
(5 3)
(6 7)
(7 4)
(8 6)
(9 8)
(10 9)
(11 10)
(12 11)
(13 12)
(14 13)
(15 14)
(16 15)
(17 16)
(18 17)
(19 18)
(20 19)
(21 20)
(22 21)
(23 22)
(24 23)
(25 24)
(26 25)
(27 26)
(28 27)
(29 28)
(30 29)
(31 30)
(32 31)
(33 32)
(34 33)
(35 34)
(36 35)
(37 36)
(38 37)
(39 38)
(40 39)
(41 40)
(42 41)
(43 42)
(1 43)
)

// concaveStart mixedStart nonFeatureStart
0 0 0
// internalStart flatStart openStart multipleStart
0 0 0 44
// normals
42{(0 0 1)}
// normal volume types

42
(
0
0
0
0
0
0
0
0
0
0
0
0
0
0
0
0
0
0
0
0
0
0
0
0
0
0
0
0
0
0
0
0
0
0
0
0
0
0
0
0
0
0
)

// normalDirections

44
(
1(1)
1(1)
1(1)
1(1)
1(1)
1(1)
1(1)
1(1)
1(1)
1(1)
1(1)
1(1)
1(1)
1(1)
1(1)
1(1)
1(1)
1(1)
1(1)
1(1)
1(1)
1(1)
1(1)
1(1)
1(1)
1(1)
1(1)
1(1)
1(1)
1(1)
1(1)
1(1)
1(1)
1(1)
1(1)
1(1)
1(1)
1(1)
1(1)
1(1)
1(1)
1(1)
1(1)
1(1)
)

// edgeNormals

44
(
1(0)
1(1)
1(2)
1(3)
1(3)
1(4)
1(4)
1(5)
1(6)
1(7)
1(8)
1(9)
1(10)
1(11)
1(12)
1(13)
1(14)
1(15)
1(16)
1(17)
1(18)
1(19)
1(20)
1(21)
1(22)
1(23)
1(24)
1(25)
1(26)
1(27)
1(28)
1(29)
1(30)
1(31)
1(32)
1(33)
1(34)
1(35)
1(36)
1(37)
1(38)
1(39)
1(40)
1(41)
)

// featurePointNormals
0()
// featurePointEdges
0()
// regionEdges

44
(
0
1
2
3
4
5
6
7
8
9
10
11
12
13
14
15
16
17
18
19
20
21
22
23
24
25
26
27
28
29
30
31
32
33
34
35
36
37
38
39
40
41
42
43
)



// ************************************************************************* //
