/*--------------------------------*- C++ -*----------------------------------*\
| =========                 |                                                 |
| \\      /  F ield         | OpenFOAM: The Open Source CFD Toolbox           |
|  \\    /   O peration     | Version:  dev                                   |
|   \\  /    A nd           | Web:      www.OpenFOAM.org                      |
|    \\/     M anipulation  |                                                 |
\*---------------------------------------------------------------------------*/
FoamFile
{
    version     2.0;
    format      ascii;
    class       extendedFeatureEdgeMesh;
    location    "constant/extendedFeatureEdgeMesh";
    object      rotating.extendedFeatureEdgeMesh;
}
// * * * * * * * * * * * * * * * * * * * * * * * * * * * * * * * * * * * * * //

// points

160
(
(-0.0164491 0.00129458 0.1)
(-0.0165 0 0.1)
(-0.0162969 0.00258117 0.1)
(-0.0160441 0.00385185 0.1)
(-0.0156924 0.00509878 0.1)
(-0.015244 0.00631428 0.1)
(-0.0147016 0.00749084 0.1)
(-0.0140686 0.00862123 0.1)
(-0.0133488 0.00969846 0.1)
(-0.0125467 0.0107159 0.1)
(-0.0116673 0.0116673 0.1)
(-0.0107159 0.0125467 0.1)
(-0.00969846 0.0133488 0.1)
(-0.00862123 0.0140686 0.1)
(-0.00749084 0.0147016 0.1)
(-0.00631428 0.015244 0.1)
(-0.00509878 0.0156924 0.1)
(-0.00385185 0.0160441 0.1)
(-0.00258117 0.0162969 0.1)
(-0.00129458 0.0164491 0.1)
(-1.01033e-18 0.0165 0.1)
(0.00129458 0.0164491 0.1)
(0.00258117 0.0162969 0.1)
(0.00385185 0.0160441 0.1)
(0.00509878 0.0156924 0.1)
(0.00631428 0.015244 0.1)
(0.00749084 0.0147016 0.1)
(0.00862123 0.0140686 0.1)
(0.00969846 0.0133488 0.1)
(0.0107159 0.0125467 0.1)
(0.0116673 0.0116673 0.1)
(0.0125467 0.0107159 0.1)
(0.0133488 0.00969846 0.1)
(0.0140686 0.00862123 0.1)
(0.0147016 0.00749084 0.1)
(0.015244 0.00631428 0.1)
(0.0156924 0.00509878 0.1)
(0.0160441 0.00385185 0.1)
(0.0162969 0.00258117 0.1)
(0.0164491 0.00129458 0.1)
(0.0165 2.02067e-18 0.1)
(0.0164491 -0.00129458 0.1)
(0.0162969 -0.00258117 0.1)
(0.0160441 -0.00385185 0.1)
(0.0156924 -0.00509878 0.1)
(0.015244 -0.00631428 0.1)
(0.0147016 -0.00749084 0.1)
(0.0140686 -0.00862123 0.1)
(0.0133488 -0.00969846 0.1)
(0.0125467 -0.0107159 0.1)
(0.0116673 -0.0116673 0.1)
(0.0107159 -0.0125467 0.1)
(0.00969846 -0.0133488 0.1)
(0.00862123 -0.0140686 0.1)
(0.00749084 -0.0147016 0.1)
(0.00631428 -0.015244 0.1)
(0.00509878 -0.0156924 0.1)
(0.00385185 -0.0160441 0.1)
(0.00258117 -0.0162969 0.1)
(0.00129458 -0.0164491 0.1)
(3.031e-18 -0.0165 0.1)
(-0.00129458 -0.0164491 0.1)
(-0.00258117 -0.0162969 0.1)
(-0.00385185 -0.0160441 0.1)
(-0.00509878 -0.0156924 0.1)
(-0.00631428 -0.015244 0.1)
(-0.00749084 -0.0147016 0.1)
(-0.00862123 -0.0140686 0.1)
(-0.00969846 -0.0133488 0.1)
(-0.0107159 -0.0125467 0.1)
(-0.0116673 -0.0116673 0.1)
(-0.0125467 -0.0107159 0.1)
(-0.0133488 -0.00969846 0.1)
(-0.0140686 -0.00862123 0.1)
(-0.0147016 -0.00749084 0.1)
(-0.015244 -0.00631428 0.1)
(-0.0156924 -0.00509878 0.1)
(-0.0160441 -0.00385185 0.1)
(-0.0162969 -0.00258117 0.1)
(-0.0164491 -0.00129458 0.1)
(-0.0164491 0.00129458 0.003)
(-0.0165 0 0.003)
(-0.0162969 0.00258117 0.003)
(-0.0160441 0.00385185 0.003)
(-0.0156924 0.00509878 0.003)
(-0.015244 0.00631428 0.003)
(-0.0147016 0.00749084 0.003)
(-0.0140686 0.00862123 0.003)
(-0.0133488 0.00969846 0.003)
(-0.0125467 0.0107159 0.003)
(-0.0116673 0.0116673 0.003)
(-0.0107159 0.0125467 0.003)
(-0.00969846 0.0133488 0.003)
(-0.00862123 0.0140686 0.003)
(-0.00749084 0.0147016 0.003)
(-0.00631428 0.015244 0.003)
(-0.00509878 0.0156924 0.003)
(-0.00385185 0.0160441 0.003)
(-0.00258117 0.0162969 0.003)
(-0.00129458 0.0164491 0.003)
(-1.01033e-18 0.0165 0.003)
(0.00129458 0.0164491 0.003)
(0.00258117 0.0162969 0.003)
(0.00385185 0.0160441 0.003)
(0.00509878 0.0156924 0.003)
(0.00631428 0.015244 0.003)
(0.00749084 0.0147016 0.003)
(0.00862123 0.0140686 0.003)
(0.00969846 0.0133488 0.003)
(0.0107159 0.0125467 0.003)
(0.0116673 0.0116673 0.003)
(0.0125467 0.0107159 0.003)
(0.0133488 0.00969846 0.003)
(0.0140686 0.00862123 0.003)
(0.0147016 0.00749084 0.003)
(0.015244 0.00631428 0.003)
(0.0156924 0.00509878 0.003)
(0.0160441 0.00385185 0.003)
(0.0162969 0.00258117 0.003)
(0.0164491 0.00129458 0.003)
(0.0165 2.02067e-18 0.003)
(0.0164491 -0.00129458 0.003)
(0.0162969 -0.00258117 0.003)
(0.0160441 -0.00385185 0.003)
(0.0156924 -0.00509878 0.003)
(0.015244 -0.00631428 0.003)
(0.0147016 -0.00749084 0.003)
(0.0140686 -0.00862123 0.003)
(0.0133488 -0.00969846 0.003)
(0.0125467 -0.0107159 0.003)
(0.0116673 -0.0116673 0.003)
(0.0107159 -0.0125467 0.003)
(0.00969846 -0.0133488 0.003)
(0.00862123 -0.0140686 0.003)
(0.00749084 -0.0147016 0.003)
(0.00631428 -0.015244 0.003)
(0.00509878 -0.0156924 0.003)
(0.00385185 -0.0160441 0.003)
(0.00258117 -0.0162969 0.003)
(0.00129458 -0.0164491 0.003)
(3.031e-18 -0.0165 0.003)
(-0.00129458 -0.0164491 0.003)
(-0.00258117 -0.0162969 0.003)
(-0.00385185 -0.0160441 0.003)
(-0.00509878 -0.0156924 0.003)
(-0.00631428 -0.015244 0.003)
(-0.00749084 -0.0147016 0.003)
(-0.00862123 -0.0140686 0.003)
(-0.00969846 -0.0133488 0.003)
(-0.0107159 -0.0125467 0.003)
(-0.0116673 -0.0116673 0.003)
(-0.0125467 -0.0107159 0.003)
(-0.0133488 -0.00969846 0.003)
(-0.0140686 -0.00862123 0.003)
(-0.0147016 -0.00749084 0.003)
(-0.015244 -0.00631428 0.003)
(-0.0156924 -0.00509878 0.003)
(-0.0160441 -0.00385185 0.003)
(-0.0162969 -0.00258117 0.003)
(-0.0164491 -0.00129458 0.003)
)

// edges

160
(
(0 1)
(2 0)
(3 2)
(4 3)
(5 4)
(6 5)
(7 6)
(8 7)
(9 8)
(10 9)
(11 10)
(12 11)
(13 12)
(14 13)
(15 14)
(16 15)
(17 16)
(18 17)
(19 18)
(20 19)
(21 20)
(22 21)
(23 22)
(24 23)
(25 24)
(26 25)
(27 26)
(28 27)
(29 28)
(30 29)
(31 30)
(32 31)
(33 32)
(34 33)
(35 34)
(36 35)
(37 36)
(38 37)
(39 38)
(40 39)
(41 40)
(42 41)
(43 42)
(44 43)
(45 44)
(46 45)
(47 46)
(48 47)
(49 48)
(50 49)
(51 50)
(52 51)
(53 52)
(54 53)
(55 54)
(56 55)
(57 56)
(58 57)
(59 58)
(60 59)
(61 60)
(62 61)
(63 62)
(64 63)
(65 64)
(66 65)
(67 66)
(68 67)
(69 68)
(70 69)
(71 70)
(72 71)
(73 72)
(74 73)
(75 74)
(76 75)
(77 76)
(78 77)
(79 78)
(1 79)
(80 81)
(82 80)
(83 82)
(84 83)
(85 84)
(86 85)
(87 86)
(88 87)
(89 88)
(90 89)
(91 90)
(92 91)
(93 92)
(94 93)
(95 94)
(96 95)
(97 96)
(98 97)
(99 98)
(100 99)
(101 100)
(102 101)
(103 102)
(104 103)
(105 104)
(106 105)
(107 106)
(108 107)
(109 108)
(110 109)
(111 110)
(112 111)
(113 112)
(114 113)
(115 114)
(116 115)
(117 116)
(118 117)
(119 118)
(120 119)
(121 120)
(122 121)
(123 122)
(124 123)
(125 124)
(126 125)
(127 126)
(128 127)
(129 128)
(130 129)
(131 130)
(132 131)
(133 132)
(134 133)
(135 134)
(136 135)
(137 136)
(138 137)
(139 138)
(140 139)
(141 140)
(142 141)
(143 142)
(144 143)
(145 144)
(146 145)
(147 146)
(148 147)
(149 148)
(150 149)
(151 150)
(152 151)
(153 152)
(154 153)
(155 154)
(156 155)
(157 156)
(158 157)
(159 158)
(81 159)
)

// concaveStart mixedStart nonFeatureStart
0 0 0
// internalStart flatStart openStart multipleStart
160 160 160 160
// normals

316
(
(0 0 1)
(-0.999229 0.0392564 0)
(0 0 1)
(-0.993068 0.117539 0)
(0 0 1)
(-0.980785 0.195094 0)
(0 0 1)
(-0.962455 0.271441 0)
(0 0 1)
(-0.938192 0.346117 0)
(0 0 1)
(-0.908145 0.418657 0)
(0 0 1)
(-0.872494 0.488625 0)
(0 0 1)
(-0.831471 0.555569 0)
(0 0 1)
(-0.785317 0.619094 0)
(0 0 1)
(-0.734321 0.678802 0)
(0 0 1)
(-0.678802 0.734321 0)
(0 0 1)
(-0.619094 0.785317 0)
(0 0 1)
(-0.555569 0.831471 0)
(0 0 1)
(-0.488625 0.872494 0)
(0 0 1)
(-0.418657 0.908145 0)
(0 0 1)
(-0.346117 0.938192 0)
(0 0 1)
(-0.271441 0.962455 0)
(0 0 1)
(-0.195094 0.980785 0)
(0 0 1)
(-0.117539 0.993068 0)
(0 0 1)
(-0.0392564 0.999229 0)
(0 0 1)
(0.0392564 0.999229 -0)
(0 0 1)
(0.117539 0.993068 -0)
(0 0 1)
(0.195094 0.980785 -0)
(0 0 1)
(0.271441 0.962455 -0)
(0 0 1)
(0.346117 0.938192 -0)
(0 0 1)
(0.418657 0.908145 -0)
(0 0 1)
(0.488625 0.872494 -0)
(0 0 1)
(0.555569 0.831471 -0)
(0 0 1)
(0.619094 0.785317 -0)
(0.678802 0.734321 -0)
(0 0 1)
(0.734321 0.678802 -0)
(0.785317 0.619094 -0)
(0 0 1)
(0.831471 0.555569 -0)
(0 0 1)
(0.872494 0.488625 -0)
(0 0 1)
(0.908145 0.418657 -0)
(0 0 1)
(0.938192 0.346117 -0)
(0 0 1)
(0.962455 0.271441 -0)
(0 0 1)
(0.980785 0.195094 -0)
(0 0 1)
(0.993068 0.117539 -0)
(0 0 1)
(0.999229 0.0392564 -0)
(0 0 1)
(0.999229 -0.0392564 0)
(0 0 1)
(0.993068 -0.117539 0)
(0 0 1)
(0.980785 -0.195094 0)
(0 0 1)
(0.962455 -0.271441 0)
(0 0 1)
(0.938192 -0.346117 0)
(0 0 1)
(0.908145 -0.418657 0)
(0 0 1)
(0.872494 -0.488625 0)
(0 0 1)
(0.831471 -0.555569 0)
(0 0 1)
(0.785317 -0.619094 0)
(0 0 1)
(0.734321 -0.678802 0)
(0 0 1)
(0.678802 -0.734321 0)
(0 0 1)
(0.619094 -0.785317 0)
(0 0 1)
(0.555569 -0.831471 0)
(0 0 1)
(0.488625 -0.872494 0)
(0 0 1)
(0.418657 -0.908145 0)
(0 0 1)
(0.346117 -0.938192 0)
(0 0 1)
(0.271441 -0.962455 0)
(0 0 1)
(0.195094 -0.980785 0)
(0 0 1)
(0.117539 -0.993068 0)
(0 0 1)
(0.0392564 -0.999229 0)
(0 0 1)
(-0.0392564 -0.999229 0)
(0 0 1)
(-0.117539 -0.993068 0)
(0 0 1)
(-0.195094 -0.980785 0)
(0 0 1)
(-0.271441 -0.962455 0)
(0 0 1)
(-0.346117 -0.938192 0)
(0 0 1)
(-0.418657 -0.908145 0)
(0 0 1)
(-0.488625 -0.872494 0)
(0 0 1)
(-0.555569 -0.831471 0)
(0 0 1)
(-0.619094 -0.785317 0)
(0 0 1)
(-0.678802 -0.734321 0)
(0 0 1)
(-0.734321 -0.678802 0)
(0 0 1)
(-0.785317 -0.619094 0)
(0 0 1)
(-0.831471 -0.555569 0)
(0 0 1)
(-0.872494 -0.488625 0)
(0 0 1)
(-0.908145 -0.418657 0)
(0 0 1)
(-0.938192 -0.346117 0)
(0 0 1)
(-0.962455 -0.271441 0)
(0 0 1)
(-0.980785 -0.195094 0)
(0 0 1)
(-0.993068 -0.117539 0)
(0 0 1)
(-0.999229 -0.0392564 0)
(-0.999229 0.0392564 0)
(0 0 -1)
(-0.993068 0.117539 0)
(0 0 -1)
(-0.980785 0.195094 0)
(0 0 -1)
(-0.962455 0.271441 0)
(0 0 -1)
(-0.938192 0.346117 0)
(0 0 -1)
(-0.908145 0.418657 0)
(0 0 -1)
(-0.872494 0.488625 0)
(0 0 -1)
(-0.831471 0.555569 0)
(0 0 -1)
(-0.785317 0.619094 0)
(0 0 -1)
(-0.734321 0.678802 0)
(0 0 -1)
(-0.678802 0.734321 0)
(0 0 -1)
(-0.619094 0.785317 0)
(0 0 -1)
(-0.555569 0.831471 0)
(0 0 -1)
(-0.488625 0.872494 0)
(0 0 -1)
(-0.418657 0.908145 0)
(0 0 -1)
(-0.346117 0.938192 0)
(0 0 -1)
(-0.271441 0.962455 0)
(0 0 -1)
(-0.195094 0.980785 0)
(0 0 -1)
(-0.117539 0.993068 0)
(0 0 -1)
(-0.0392564 0.999229 0)
(0 0 -1)
(0.0392564 0.999229 0)
(0 0 -1)
(0.117539 0.993068 0)
(0 0 -1)
(0.195094 0.980785 0)
(0 0 -1)
(0.271441 0.962455 0)
(0 0 -1)
(0.346117 0.938192 0)
(0 0 -1)
(0.418657 0.908145 0)
(0 0 -1)
(0.488625 0.872494 0)
(0 0 -1)
(0.555569 0.831471 0)
(0 0 -1)
(0.619094 0.785317 0)
(0 0 -1)
(0.678802 0.734321 0)
(0.734321 0.678802 0)
(-0 -0 -1)
(0.785317 0.619094 0)
(0.831471 0.555569 0)
(-0 -0 -1)
(0.872494 0.488625 0)
(-0 -0 -1)
(0.908145 0.418657 0)
(-0 -0 -1)
(0.938192 0.346117 0)
(-0 -0 -1)
(0.962455 0.271441 0)
(-0 -0 -1)
(0.980785 0.195094 0)
(-0 -0 -1)
(0.993068 0.117539 0)
(-0 -0 -1)
(0.999229 0.0392564 0)
(-0 -0 -1)
(0.999229 -0.0392564 0)
(-0 0 -1)
(0.993068 -0.117539 0)
(-0 0 -1)
(0.980785 -0.195094 0)
(-0 0 -1)
(0.962455 -0.271441 0)
(-0 0 -1)
(0.938192 -0.346117 0)
(-0 0 -1)
(0.908145 -0.418657 0)
(-0 0 -1)
(0.872494 -0.488625 0)
(-0 0 -1)
(0.831471 -0.555569 0)
(-0 0 -1)
(0.785317 -0.619094 0)
(-0 0 -1)
(0.734321 -0.678802 0)
(-0 0 -1)
(0.678802 -0.734321 0)
(-0 0 -1)
(0.619094 -0.785317 0)
(-0 0 -1)
(0.555569 -0.831471 0)
(-0 0 -1)
(0.488625 -0.872494 0)
(-0 0 -1)
(0.418657 -0.908145 0)
(-0 0 -1)
(0.346117 -0.938192 0)
(-0 0 -1)
(0.271441 -0.962455 0)
(-0 0 -1)
(0.195094 -0.980785 0)
(-0 0 -1)
(0.117539 -0.993068 0)
(-0 0 -1)
(0.0392564 -0.999229 0)
(-0 0 -1)
(-0.0392564 -0.999229 0)
(0 0 -1)
(-0.117539 -0.993068 0)
(0 0 -1)
(-0.195094 -0.980785 0)
(0 0 -1)
(-0.271441 -0.962455 0)
(0 0 -1)
(-0.346117 -0.938192 0)
(0 0 -1)
(-0.418657 -0.908145 0)
(0 0 -1)
(-0.488625 -0.872494 0)
(0 0 -1)
(-0.555569 -0.831471 0)
(0 0 -1)
(-0.619094 -0.785317 0)
(0 0 -1)
(-0.678802 -0.734321 0)
(0 0 -1)
(-0.734321 -0.678802 0)
(0 0 -1)
(-0.785317 -0.619094 0)
(0 0 -1)
(-0.831471 -0.555569 0)
(0 0 -1)
(-0.872494 -0.488625 0)
(0 0 -1)
(-0.908145 -0.418657 0)
(0 0 -1)
(-0.938192 -0.346117 0)
(0 0 -1)
(-0.962455 -0.271441 0)
(0 0 -1)
(-0.980785 -0.195094 0)
(0 0 -1)
(-0.993068 -0.117539 0)
(0 0 -1)
(-0.999229 -0.0392564 0)
(0 0 -1)
)

// normal volume types

316
(
0
0
0
0
0
0
0
0
0
0
0
0
0
0
0
0
0
0
0
0
0
0
0
0
0
0
0
0
0
0
0
0
0
0
0
0
0
0
0
0
0
0
0
0
0
0
0
0
0
0
0
0
0
0
0
0
0
0
0
0
0
0
0
0
0
0
0
0
0
0
0
0
0
0
0
0
0
0
0
0
0
0
0
0
0
0
0
0
0
0
0
0
0
0
0
0
0
0
0
0
0
0
0
0
0
0
0
0
0
0
0
0
0
0
0
0
0
0
0
0
0
0
0
0
0
0
0
0
0
0
0
0
0
0
0
0
0
0
0
0
0
0
0
0
0
0
0
0
0
0
0
0
0
0
0
0
0
0
0
0
0
0
0
0
0
0
0
0
0
0
0
0
0
0
0
0
0
0
0
0
0
0
0
0
0
0
0
0
0
0
0
0
0
0
0
0
0
0
0
0
0
0
0
0
0
0
0
0
0
0
0
0
0
0
0
0
0
0
0
0
0
0
0
0
0
0
0
0
0
0
0
0
0
0
0
0
0
0
0
0
0
0
0
0
0
0
0
0
0
0
0
0
0
0
0
0
0
0
0
0
0
0
0
0
0
0
0
0
0
0
0
0
0
0
0
0
0
0
0
0
0
0
0
0
0
0
0
0
0
0
0
0
0
0
0
0
0
0
0
0
0
0
0
0
0
0
0
0
0
0
0
0
0
0
0
0
)

// normalDirections

160
(
2(1 -1)
2(1 -1)
2(1 -1)
2(1 -1)
2(1 -1)
2(1 -1)
2(1 -1)
2(1 -1)
2(1 -1)
2(1 -1)
2(1 -1)
2(1 -1)
2(1 -1)
2(1 -1)
2(1 -1)
2(1 -1)
2(1 -1)
2(1 -1)
2(1 -1)
2(1 -1)
2(1 -1)
2(1 -1)
2(1 -1)
2(1 -1)
2(1 -1)
2(1 -1)
2(1 -1)
2(1 -1)
2(1 -1)
2(1 -1)
2(1 -1)
2(1 -1)
2(1 -1)
2(1 -1)
2(1 -1)
2(1 -1)
2(1 -1)
2(1 -1)
2(1 -1)
2(1 -1)
2(1 -1)
2(1 -1)
2(1 -1)
2(1 -1)
2(1 -1)
2(1 -1)
2(1 -1)
2(1 -1)
2(1 -1)
2(1 -1)
2(1 -1)
2(1 -1)
2(1 -1)
2(1 -1)
2(1 -1)
2(1 -1)
2(1 -1)
2(1 -1)
2(1 -1)
2(1 -1)
2(1 -1)
2(1 -1)
2(1 -1)
2(1 -1)
2(1 -1)
2(1 -1)
2(1 -1)
2(1 -1)
2(1 -1)
2(1 -1)
2(1 -1)
2(1 -1)
2(1 -1)
2(1 -1)
2(1 -1)
2(1 -1)
2(1 -1)
2(1 -1)
2(1 -1)
2(1 -1)
2(1 -1)
2(1 -1)
2(1 -1)
2(1 -1)
2(1 -1)
2(1 -1)
2(1 -1)
2(1 -1)
2(1 -1)
2(1 -1)
2(1 -1)
2(1 -1)
2(1 -1)
2(1 -1)
2(1 -1)
2(1 -1)
2(1 -1)
2(1 -1)
2(1 -1)
2(1 -1)
2(1 -1)
2(1 -1)
2(1 -1)
2(1 -1)
2(1 -1)
2(1 -1)
2(1 -1)
2(1 -1)
2(1 -1)
2(1 -1)
2(1 -1)
2(1 -1)
2(1 -1)
2(1 -1)
2(1 -1)
2(1 -1)
2(1 -1)
2(1 -1)
2(1 -1)
2(1 -1)
2(1 -1)
2(1 -1)
2(1 -1)
2(1 -1)
2(1 -1)
2(1 -1)
2(1 -1)
2(1 -1)
2(1 -1)
2(1 -1)
2(1 -1)
2(1 -1)
2(1 -1)
2(1 -1)
2(1 -1)
2(1 -1)
2(1 -1)
2(1 -1)
2(1 -1)
2(1 -1)
2(1 -1)
2(1 -1)
2(1 -1)
2(1 -1)
2(1 -1)
2(1 -1)
2(1 -1)
2(1 -1)
2(1 -1)
2(1 -1)
2(1 -1)
2(1 -1)
2(1 -1)
2(1 -1)
2(1 -1)
2(1 -1)
2(1 -1)
2(1 -1)
2(1 -1)
2(1 -1)
)

// edgeNormals

160
(
2(0 1)
2(2 3)
2(4 5)
2(6 7)
2(8 9)
2(10 11)
2(12 13)
2(14 15)
2(16 17)
2(18 19)
2(20 21)
2(22 23)
2(24 25)
2(26 27)
2(28 29)
2(30 31)
2(32 33)
2(34 35)
2(36 37)
2(38 39)
2(40 41)
2(42 43)
2(44 45)
2(46 47)
2(48 49)
2(50 51)
2(52 53)
2(54 55)
2(56 57)
2(56 58)
2(59 60)
2(59 61)
2(62 63)
2(64 65)
2(66 67)
2(68 69)
2(70 71)
2(72 73)
2(74 75)
2(76 77)
2(78 79)
2(80 81)
2(82 83)
2(84 85)
2(86 87)
2(88 89)
2(90 91)
2(92 93)
2(94 95)
2(96 97)
2(98 99)
2(100 101)
2(102 103)
2(104 105)
2(106 107)
2(108 109)
2(110 111)
2(112 113)
2(114 115)
2(116 117)
2(118 119)
2(120 121)
2(122 123)
2(124 125)
2(126 127)
2(128 129)
2(130 131)
2(132 133)
2(134 135)
2(136 137)
2(138 139)
2(140 141)
2(142 143)
2(144 145)
2(146 147)
2(148 149)
2(150 151)
2(152 153)
2(154 155)
2(156 157)
2(158 159)
2(160 161)
2(162 163)
2(164 165)
2(166 167)
2(168 169)
2(170 171)
2(172 173)
2(174 175)
2(176 177)
2(178 179)
2(180 181)
2(182 183)
2(184 185)
2(186 187)
2(188 189)
2(190 191)
2(192 193)
2(194 195)
2(196 197)
2(198 199)
2(200 201)
2(202 203)
2(204 205)
2(206 207)
2(208 209)
2(210 211)
2(212 213)
2(214 215)
2(216 215)
2(217 218)
2(219 218)
2(220 221)
2(222 223)
2(224 225)
2(226 227)
2(228 229)
2(230 231)
2(232 233)
2(234 235)
2(236 237)
2(238 239)
2(240 241)
2(242 243)
2(244 245)
2(246 247)
2(248 249)
2(250 251)
2(252 253)
2(254 255)
2(256 257)
2(258 259)
2(260 261)
2(262 263)
2(264 265)
2(266 267)
2(268 269)
2(270 271)
2(272 273)
2(274 275)
2(276 277)
2(278 279)
2(280 281)
2(282 283)
2(284 285)
2(286 287)
2(288 289)
2(290 291)
2(292 293)
2(294 295)
2(296 297)
2(298 299)
2(300 301)
2(302 303)
2(304 305)
2(306 307)
2(308 309)
2(310 311)
2(312 313)
2(314 315)
)

// featurePointNormals
0()
// featurePointEdges
0()
// regionEdges
0()


// ************************************************************************* //
