/*--------------------------------*- C++ -*----------------------------------*\
| =========                 |                                                 |
| \\      /  F ield         | OpenFOAM: The Open Source CFD Toolbox           |
|  \\    /   O peration     | Version:  dev                                   |
|   \\  /    A nd           | Web:      www.OpenFOAM.org                      |
|    \\/     M anipulation  |                                                 |
\*---------------------------------------------------------------------------*/
FoamFile
{
    version     2.0;
    format      ascii;
    class       extendedFeatureEdgeMesh;
    location    "constant/extendedFeatureEdgeMesh";
    object      shaftRotating.extendedFeatureEdgeMesh;
}
// * * * * * * * * * * * * * * * * * * * * * * * * * * * * * * * * * * * * * //

// points

118
(
(0.00613958 0.001 0.00602541)
(0.00631322 0.001 0.00701022)
(-0.0037085 0.001 0.0077619)
(-0.0037085 0.014 0.0077619)
(0.00613958 0.014 0.00602541)
(0.00631322 0.014 0.00701022)
(-0.00353485 0.001 0.0087467)
(-0.00353485 0.014 0.0087467)
(-0.00631322 -0.001 0.00701022)
(-0.00631322 -0.014 0.00701022)
(0.00353485 -0.014 0.0087467)
(0.00353485 -0.001 0.0087467)
(-0.00613958 -0.001 0.00602541)
(-0.00613958 -0.014 0.00602541)
(0.0037085 -0.014 0.0077619)
(0.0037085 -0.001 0.0077619)
(0.00232444 0.000920311 0.005)
(0.00232444 -0.000920311 0.005)
(-0.00229129 0.001 0.00852743)
(-0.00229129 0.001 0.007512)
(0.00229129 0.001 0.0077194)
(0.00229129 0.001 0.00670397)
(0.00229129 -0.001 0.00852743)
(0.00229129 -0.001 0.007512)
(-0.00229129 -0.001 0.0077194)
(-0.00229129 -0.001 0.00670397)
(-0.00206016 0.00141625 0.00848667)
(-0.00175431 0.00178113 0.00843274)
(-0.00137863 0.00208552 0.0083665)
(-0.00137863 0.00208552 0.00735108)
(-0.00175431 0.00178113 0.00741732)
(-0.000951382 0.0023119 0.00829117)
(-0.000488548 0.0024518 0.00820956)
(-7.43924e-06 0.00249999 0.00812472)
(0.000473948 0.00245466 0.00803984)
(0.000937606 0.00231752 0.00795809)
(0.000937606 0.00231752 0.00694266)
(0.000473948 0.00245466 0.00702442)
(0.00174367 0.00179153 0.00781596)
(0.00205593 0.00142237 0.0077609)
(0.00205593 0.00142237 0.00674547)
(0.00206016 -0.00141625 0.00848667)
(0.00206016 -0.00141625 0.00747125)
(0.00175431 -0.00178113 0.00843274)
(0.00137863 -0.00208552 0.0083665)
(0.000951382 -0.0023119 0.00829117)
(0.000488548 -0.0024518 0.00820956)
(0.000488548 -0.0024518 0.00719413)
(0.000951382 -0.0023119 0.00727574)
(7.43924e-06 -0.00249999 0.00812472)
(-0.000937606 -0.00231752 0.00795809)
(-0.00136619 -0.00209369 0.00788252)
(-0.00174367 -0.00179153 0.00781596)
(-0.00174367 -0.00179153 0.00680053)
(-0.00136619 -0.00209369 0.00686709)
(-0.00205593 -0.00142237 0.0077609)
(0.00174367 0.00179153 0.00680053)
(0.00136619 0.00209369 0.00686709)
(-7.43924e-06 0.00249999 0.0071093)
(-0.000488548 0.0024518 0.00719413)
(-0.000951382 0.0023119 0.00727574)
(-0.00206016 0.00141625 0.00747125)
(0.00136619 0.00209369 0.00788252)
(-0.000473948 -0.00245466 0.00803984)
(-0.00205593 -0.00142237 0.00674547)
(-0.000937606 -0.00231752 0.00694266)
(-0.000473948 -0.00245466 0.00702442)
(7.43924e-06 -0.00249999 0.0071093)
(0.00137863 -0.00208552 0.00735108)
(0.00175431 -0.00178113 0.00741732)
(-0.00242146 0.000621725 0.1)
(-0.0025 0 0.1)
(-0.00219077 0.00120438 0.1)
(-0.00182242 0.00171137 0.1)
(-0.00133957 0.00211082 0.1)
(-0.000772542 0.00237764 0.1)
(-0.000156976 0.00249507 0.1)
(0.000468453 0.00245572 0.1)
(0.00106445 0.00226207 0.1)
(0.00159356 0.00192628 0.1)
(0.00202254 0.00146946 0.1)
(0.00232444 0.000920311 0.1)
(0.00248029 0.000313333 0.1)
(0.00248029 -0.000313333 0.1)
(0.00232444 -0.000920311 0.1)
(0.00202254 -0.00146946 0.1)
(0.00159356 -0.00192628 0.1)
(0.00106445 -0.00226207 0.1)
(0.000468453 -0.00245572 0.1)
(-0.000156976 -0.00249507 0.1)
(-0.000772542 -0.00237764 0.1)
(-0.00133957 -0.00211082 0.1)
(-0.00182242 -0.00171137 0.1)
(-0.00219077 -0.00120438 0.1)
(-0.00242146 -0.000621725 0.1)
(-0.00242146 0.000621725 0.005)
(-0.0025 0 0.005)
(-0.00219077 0.00120438 0.005)
(-0.00182242 0.00171137 0.005)
(-0.00133957 0.00211082 0.005)
(-0.000772542 0.00237764 0.005)
(-0.000156976 0.00249507 0.005)
(0.000468453 0.00245572 0.005)
(0.00106445 0.00226207 0.005)
(0.00159356 0.00192628 0.005)
(0.00202254 0.00146946 0.005)
(0.00248029 0.000313333 0.005)
(0.00248029 -0.000313333 0.005)
(0.00202254 -0.00146946 0.005)
(0.00159356 -0.00192628 0.005)
(0.00106445 -0.00226207 0.005)
(0.000468453 -0.00245572 0.005)
(-0.000156976 -0.00249507 0.005)
(-0.000772542 -0.00237764 0.005)
(-0.00133957 -0.00211082 0.005)
(-0.00182242 -0.00171137 0.005)
(-0.00219077 -0.00120438 0.005)
(-0.00242146 -0.000621725 0.005)
)

// edges

134
(
(20 16)
(17 22)
(23 17)
(21 0)
(0 1)
(1 20)
(19 2)
(2 3)
(3 4)
(4 0)
(5 1)
(4 5)
(6 18)
(7 6)
(5 7)
(3 7)
(2 6)
(8 9)
(24 8)
(9 10)
(11 22)
(10 11)
(12 8)
(25 12)
(13 9)
(12 13)
(14 10)
(13 14)
(15 23)
(11 15)
(14 15)
(95 96)
(97 95)
(98 97)
(99 98)
(100 99)
(101 100)
(102 101)
(103 102)
(104 103)
(105 104)
(16 105)
(106 16)
(107 106)
(17 107)
(108 17)
(109 108)
(110 109)
(111 110)
(112 111)
(113 112)
(114 113)
(115 114)
(116 115)
(117 116)
(96 117)
(16 21)
(70 71)
(72 70)
(73 72)
(74 73)
(75 74)
(76 75)
(77 76)
(78 77)
(79 78)
(80 79)
(81 80)
(82 81)
(83 82)
(84 83)
(85 84)
(86 85)
(87 86)
(88 87)
(89 88)
(90 89)
(91 90)
(92 91)
(93 92)
(94 93)
(71 94)
(19 18)
(26 27)
(27 28)
(29 30)
(28 31)
(32 33)
(33 34)
(34 35)
(36 37)
(38 39)
(39 20)
(21 40)
(21 20)
(22 23)
(22 41)
(42 23)
(41 43)
(44 45)
(45 46)
(47 48)
(46 49)
(50 51)
(51 52)
(53 54)
(52 55)
(24 25)
(40 56)
(56 57)
(57 36)
(37 58)
(58 59)
(59 60)
(60 29)
(30 61)
(61 19)
(62 38)
(35 62)
(31 32)
(18 26)
(55 24)
(63 50)
(49 63)
(43 44)
(25 64)
(64 53)
(54 65)
(65 66)
(66 67)
(67 47)
(48 68)
(68 69)
(69 42)
)

// concaveStart mixedStart nonFeatureStart
16 16 26
// internalStart flatStart openStart multipleStart
31 57 57 82
// normals

255
(
(0.945581 -0.325388 0)
(0.874261 -0.485455 0)
(0 -1 0)
(0.766382 -0.642385 8.07123e-05)
(0.766376 -0.642392 0)
(0.173648 1.47413e-06 0.984808)
(0.629531 -0.776976 -5.38103e-05)
(0.629536 -0.776971 0)
(0.173649 -9.98922e-07 0.984808)
(0.629759 -0.776788 0.00210308)
(0.629536 -0.776971 0)
(-0.173649 2.73843e-06 -0.984808)
(0.468203 -0.883621 4.44095e-05)
(0.468197 -0.883624 0)
(0.173647 -2.33101e-07 0.984808)
(0.0996826 -0.995019 0.000108938)
(0.0996636 -0.995021 0)
(0.173648 -9.35625e-08 0.984808)
(-0.0937392 -0.995597 5.80798e-06)
(-0.0937402 -0.995597 0)
(0.173648 9.81377e-08 0.984808)
(-0.283642 -0.95893 -5.95861e-06)
(-0.283641 -0.95893 0)
(0.173648 3.0601e-07 0.984808)
(-0.283597 -0.958943 0.000270544)
(-0.283641 -0.95893 -0)
(-0.173647 -6.66816e-07 -0.984808)
(-0.763496 -0.645813 5.33256e-05)
(-0.7635 -0.645808 0)
(0.173648 -1.72714e-06 0.984808)
(-0.873541 -0.48675 -6.77222e-05)
(-0.873538 -0.486755 0)
(0.173648 1.12749e-06 0.984808)
(-0.873384 -0.48702 0.00356848)
(-0.873538 -0.486755 -0)
(-0.173648 2.16874e-06 -0.984808)
(0.923285 0.384116 0)
(0 -1 0)
(0.923285 -0.384116 0)
(0 1 0)
(-0.874261 0.485455 0)
(-0.874258 0.485461 -7.70426e-05)
(-0.173648 -3.36638e-09 0.984808)
(-0.874377 0.485239 0.00285956)
(-0.874261 0.485455 0)
(0.173648 -2.21713e-06 -0.984808)
(-0.76638 0.642387 5.85546e-05)
(-0.766376 0.642392 0)
(-0.173648 -1.47413e-06 0.984808)
(-0.46821 0.883617 9.71336e-05)
(-0.468197 0.883624 0)
(-0.173647 2.33101e-07 0.984808)
(-0.289339 0.957227 -2.24854e-05)
(-0.289343 0.957225 0)
(-0.173648 1.20867e-07 0.984808)
(-0.289495 0.957179 0.000942179)
(-0.289343 0.957225 0)
(0.17365 3.76738e-07 -0.984808)
(-0.0996672 0.995021 2.06508e-05)
(-0.0996636 0.995021 0)
(-0.173648 9.35625e-08 0.984808)
(0.462925 0.886398 3.10745e-05)
(0.462929 0.886395 0)
(-0.17365 6.16986e-07 0.984808)
(0.624906 0.7807 -3.54064e-05)
(0.624903 0.780703 0)
(-0.173649 -2.1445e-06 0.984808)
(0.624714 0.780851 0.00174273)
(0.624903 0.780703 0)
(0.173648 -1.8461e-06 -0.984808)
(0.763493 0.645816 9.05769e-05)
(0.7635 0.645808 0)
(-0.173648 1.72714e-06 0.984808)
(0.945581 0.325388 0)
(0.873538 0.486755 0)
(0 1 0)
(-0.763703 -0.645561 -0.00280724)
(-0.7635 -0.645808 -0)
(-0.173649 -2.59683e-06 -0.984808)
(-0.62556 -0.780151 -0.00623037)
(-0.624903 -0.780703 -0)
(-0.173648 1.8461e-06 -0.984808)
(-0.463613 -0.886024 -0.00498008)
(-0.462929 -0.886395 -0)
(-0.173648 -1.54284e-07 -0.984808)
(-0.0937863 -0.995592 -0.0002637)
(-0.0937402 -0.995597 -0)
(-0.173649 -4.12195e-07 -0.984808)
(0.0988445 -0.995092 -0.00468546)
(0.0996636 -0.995021 0)
(-0.173648 1.04688e-07 -0.984808)
(0.288534 -0.957457 -0.00498507)
(0.289343 -0.957225 0)
(-0.17365 -3.76738e-07 -0.984808)
(0.467957 -0.883749 -0.00173633)
(0.468197 -0.883624 0)
(-0.173648 -4.3599e-08 -0.984808)
(0.766151 -0.642654 -0.00304311)
(0.766376 -0.642392 0)
(-0.173647 -1.99118e-06 -0.984808)
(0.874063 -0.485791 -0.00454865)
(0.874261 -0.485455 0)
(-0.173648 2.21713e-06 -0.984808)
(-0.624889 -0.780713 0.000123604)
(-0.624903 -0.780703 0)
(0.173649 2.1445e-06 0.984808)
(-0.462915 -0.886403 0.00010392)
(-0.462929 -0.886395 0)
(0.17365 -6.16986e-07 0.984808)
(0.289363 -0.957219 0.000121918)
(0.289343 -0.957225 0)
(0.173648 -1.20867e-07 0.984808)
(0.874267 -0.485446 0.000123921)
(0.173648 3.36638e-09 0.984808)
(0.873533 0.486765 0.000126555)
(0.873538 0.486755 0)
(-0.173648 -1.12749e-06 0.984808)
(0.283622 0.958936 0.000117744)
(0.283641 0.95893 0)
(-0.173648 -3.0601e-07 0.984808)
(0.0937202 0.995599 0.00011438)
(0.0937402 0.995597 0)
(-0.173648 -9.81377e-08 0.984808)
(-0.62955 0.77696 0.000126497)
(-0.629536 0.776971 0)
(-0.173649 9.98922e-07 0.984808)
(0.873801 0.486236 -0.00677452)
(0.173648 -2.16874e-06 -0.984808)
(0.763835 0.645395 -0.00467108)
(0.7635 0.645808 0)
(0.173649 2.59683e-06 -0.984808)
(0.46314 0.886284 -0.00152902)
(0.462929 0.886395 0)
(0.173648 1.54284e-07 -0.984808)
(0.284527 0.958652 -0.00549292)
(0.283641 0.95893 0)
(0.173647 6.66816e-07 -0.984808)
(0.0946221 0.9955 -0.0050526)
(0.0937402 0.995597 0)
(0.173649 4.12195e-07 -0.984808)
(-0.0995125 0.995036 -0.00086536)
(-0.0996636 0.995021 0)
(0.173648 -1.04688e-07 -0.984808)
(-0.467659 0.8839 -0.00388074)
(-0.468197 0.883624 0)
(0.173648 4.3599e-08 -0.984808)
(-0.629012 0.77738 -0.00485263)
(-0.629536 0.776971 0)
(0.173649 -2.73843e-06 -0.984808)
(-0.766216 0.64258 -0.00217499)
(-0.766376 0.642392 0)
(0.173647 1.99118e-06 -0.984808)
(0.992115 -0.125333 0)
(0.929777 -0.368124 -0.000199221)
(0.809017 -0.587785 -0.000206128)
(0.637424 -0.770514 -0.000112828)
(0.425779 -0.904827 -0.000181662)
(0.187382 -0.982287 -0.000213858)
(-0.0627911 -0.998027 -0.000155667)
(-0.309016 -0.951057 -0.000147116)
(-0.535827 -0.844328 -0.000211826)
(-0.728969 -0.684547 -0.000186451)
(-0.876306 -0.481754 -0.000101193)
(-0.968583 -0.248691 -0)
(-1 0 0)
(-0.968583 0.248691 0)
(-0.876306 0.481754 -0.000102087)
(-0.728969 0.684547 -0.000194533)
(-0.535827 0.844328 -0.000210401)
(-0.309016 0.951057 -0.000135777)
(-0.0627911 0.998027 -0.000165835)
(0.187382 0.982287 -0.000214305)
(0.425779 0.904827 -0.000172537)
(0.637424 0.770514 -0.000125559)
(0.809017 0.587785 -0.00020649)
(0.929777 0.368124 -0.000197477)
(0.992115 0.125333 0)
(-0.923285 -0.384116 -0)
(-0.923285 0.384116 0)
(-0.8763 0.481751 0.00371739)
(0 -1 0)
(0.984808 0 -0.173648)
(-0.173648 0 -0.984808)
(-0.984808 0 0.173649)
(-0.173648 4.7197e-08 -0.984808)
(0 1 0)
(-0.173648 0 -0.984808)
(0.984808 0 -0.173648)
(0.173648 0 0.984808)
(0 -1 -0)
(0.173649 0 0.984808)
(-0.984808 0 0.173649)
(0.173648 5.99047e-09 0.984808)
(0 1 0)
(-0.173648 0 0.984808)
(-0.984808 -0 -0.173648)
(-0.173648 -5.99047e-09 0.984808)
(0 -1 0)
(0 1 0)
(-0.173649 0 0.984808)
(0.984808 -0 0.173649)
(0 1 0)
(-0.984808 -0 -0.173648)
(0.173648 0 -0.984808)
(0 -1 0)
(0.984808 0 0.173649)
(0.173648 -4.7197e-08 -0.984808)
(0.173648 0 -0.984808)
(0 0 1)
(0.992115 -0.125333 0)
(0 0 1)
(0.929752 -0.368115 0.0072543)
(0 0 1)
(0.808994 -0.587768 0.00763296)
(0 0 1)
(0.637418 -0.770506 0.00427385)
(0 0 1)
(0.425767 -0.904803 0.00732052)
(0 0 1)
(0.187375 -0.982248 0.00894627)
(0 0 1)
(-0.0627897 -0.998004 0.00678026)
(0 0 1)
(-0.309009 -0.951034 0.0069701)
(-0.535798 -0.844282 0.0104504)
(0 0 1)
(-0.728936 -0.684516 0.00954556)
(-0.876293 -0.481747 0.00548015)
(0 0 1)
(-0.968583 -0.248691 -0)
(0 0 1)
(-1 0 -0)
(0 0 1)
(-0.968583 0.248691 0)
(0 0 1)
(0 0 1)
(-0.728949 0.684528 0.00736864)
(0 0 1)
(-0.535809 0.844299 0.00820012)
(0 0 1)
(-0.309012 0.951043 0.00547151)
(0 0 1)
(-0.0627895 0.998001 0.00722315)
(0 0 1)
(0.187373 0.982241 0.00973448)
(0 0 1)
(0.425764 0.904797 0.0081744)
(0 0 1)
(0.63741 0.770498 0.00642826)
(0 0 1)
(0.808969 0.58775 0.0109113)
(0 0 1)
(0.929723 0.368103 0.010694)
(0 0 1)
(0.992115 0.125333 0)
)

// normal volume types

255
(
0
0
0
0
0
0
0
0
0
0
0
0
0
0
0
0
0
0
0
0
0
0
0
0
0
0
0
0
0
0
0
0
0
0
0
0
0
0
0
0
0
0
0
0
0
0
0
0
0
0
0
0
0
0
0
0
0
0
0
0
0
0
0
0
0
0
0
0
0
0
0
0
0
0
0
0
0
0
0
0
0
0
0
0
0
0
0
0
0
0
0
0
0
0
0
0
0
0
0
0
0
0
0
0
0
0
0
0
0
0
0
0
0
0
0
0
0
0
0
0
0
0
0
0
0
0
0
0
0
0
0
0
0
0
0
0
0
0
0
0
0
0
0
0
0
0
0
0
0
0
0
0
0
0
0
0
0
0
0
0
0
0
0
0
0
0
0
0
0
0
0
0
0
0
0
0
0
0
0
0
0
0
0
0
0
0
0
0
0
0
0
0
0
0
0
0
0
0
0
0
0
0
0
0
0
0
0
0
0
0
0
0
0
0
0
0
0
0
0
0
0
0
0
0
0
0
0
0
0
0
0
0
0
0
0
0
0
0
0
0
0
0
0
0
0
0
0
0
0
0
0
0
0
0
0
)

// normalDirections

134
(
2{1}
2{1}
2{1}
2(1 -1)
2(1 -1)
2(1 -1)
2(1 -1)
2(1 -1)
2(1 -1)
2(1 -1)
2(1 -1)
2(1 -1)
2(1 -1)
2(1 -1)
2(1 -1)
2(1 -1)
2(1 -1)
2(1 -1)
2(1 -1)
2(1 -1)
2(1 -1)
2(1 -1)
2(1 -1)
2(1 -1)
2(1 -1)
2(1 -1)
2(1 -1)
2(1 -1)
2(1 -1)
2(1 -1)
2(1 -1)
2(1 -1)
2(1 -1)
2(1 -1)
2(1 -1)
2(1 -1)
2(1 -1)
2(1 -1)
2(1 -1)
2(1 -1)
2(1 -1)
2(1 -1)
2(1 -1)
2(1 -1)
2(1 -1)
2(1 -1)
2(1 -1)
2(1 -1)
2(1 -1)
2(1 -1)
2(1 -1)
2(1 -1)
2(1 -1)
2(1 -1)
2(1 -1)
2(1 -1)
2{1}
1(1)
1(1)
1(1)
1(1)
1(1)
1(1)
1(1)
1(1)
1(1)
1(1)
1(1)
1(1)
1(1)
1(1)
1(1)
1(1)
1(1)
1(1)
1(1)
1(1)
1(1)
1(1)
1(1)
1(1)
1(1)
3(1 -1 1)
3(1 -1 1)
3(1 -1 1)
3(1 -1 1)
3(1 -1 1)
3(1 -1 1)
3(1 -1 1)
3(1 -1 1)
3(1 -1 1)
3(1 -1 1)
3(1 -1 1)
3(1 -1 1)
3(1 -1 1)
3(1 -1 1)
3(1 -1 1)
3(1 -1 1)
3(1 -1 1)
3(1 -1 1)
3(1 -1 1)
3(1 -1 1)
3(1 -1 1)
3(1 -1 1)
3(1 -1 1)
3(1 -1 1)
3(1 -1 1)
3(1 -1 1)
3(1 -1 1)
3(1 -1 1)
3(1 -1 1)
3(1 -1 1)
3(1 -1 1)
3(1 -1 1)
3(1 -1 1)
3(1 -1 1)
3(1 -1 1)
3(1 -1 1)
3(1 -1 1)
3(1 -1 1)
3(1 -1 1)
3(1 -1 1)
3(1 -1 1)
3(1 -1 1)
3(1 -1 1)
3(1 -1 1)
3(1 -1 1)
3(1 -1 1)
3(1 -1 1)
3(1 -1 1)
3(1 -1 1)
3(1 -1 1)
3(1 -1 1)
3(1 -1 1)
)

// edgeNormals

134
(
2(177 36)
2(178 38)
2(38 179)
2(180 35)
2(180 181)
2(37 32)
2(102 2)
2(182 183)
2(184 185)
2(186 181)
2(187 188)
2(187 185)
2(113 189)
2(190 191)
2(192 193)
2(193 191)
2(183 189)
2(194 195)
2(116 75)
2(196 197)
2(42 198)
2(199 200)
2(201 195)
2(201 127)
2(202 197)
2(202 203)
2(204 205)
2(204 206)
2(39 45)
2(198 200)
2(205 207)
2(208 209)
2(210 211)
2(212 213)
2(214 215)
2(216 217)
2(218 219)
2(220 221)
2(222 223)
2(222 224)
2(225 226)
2(225 227)
2(228 229)
2(230 231)
2(232 233)
2(234 179)
2(235 236)
2(237 238)
2(239 240)
2(241 242)
2(243 244)
2(245 246)
2(247 248)
2(249 250)
2(251 252)
2(253 254)
2(227 36)
1(152)
1(153)
1(154)
1(155)
1(156)
1(157)
1(158)
1(159)
1(160)
1(161)
1(162)
1(163)
1(164)
1(165)
1(166)
1(167)
1(168)
1(169)
1(170)
1(171)
1(172)
1(173)
1(174)
1(175)
1(176)
3(0 1 2)
3(3 4 5)
3(6 7 8)
3(9 10 11)
3(12 13 14)
3(15 16 17)
3(18 19 20)
3(21 22 23)
3(24 25 26)
3(27 28 29)
3(30 31 32)
3(33 34 35)
3(36 37 34)
3(38 39 40)
3(41 40 42)
3(43 44 45)
3(46 47 48)
3(49 50 51)
3(52 53 54)
3(55 56 57)
3(58 59 60)
3(61 62 63)
3(64 65 66)
3(67 68 69)
3(70 71 72)
3(73 74 75)
3(76 77 78)
3(79 80 81)
3(82 83 84)
3(85 86 87)
3(88 89 90)
3(91 92 93)
3(94 95 96)
3(97 98 99)
3(100 101 102)
3(103 104 105)
3(106 107 108)
3(109 110 111)
3(112 1 113)
3(114 115 116)
3(117 118 119)
3(120 121 122)
3(123 124 125)
3(126 74 127)
3(128 129 130)
3(131 132 133)
3(134 135 136)
3(137 138 139)
3(140 141 142)
3(143 144 145)
3(146 147 148)
3(149 150 151)
)

// featurePointNormals

26
(
3(180 35 181)
3(180 181 32)
3(102 2 183)
3(182 183 185)
3(184 185 181)
3(187 188 185)
3(113 189 191)
3(190 191 193)
3(194 195 75)
3(194 195 197)
3(196 197 200)
3(42 198 200)
3(201 195 127)
3(202 197 203)
3(204 205 206)
3(39 45 200)
5(177 36 225 227 229)
5(178 38 179 232 233)
4(113 189 0 1)
5(102 2 0 1 100)
5(177 36 37 32 30)
6(180 35 227 36 33 34)
5(178 38 42 198 40)
6(38 179 39 45 40 43)
4(116 75 73 74)
5(201 127 73 74 126)
)

// featurePointEdges

26
(
3(3 9 4)
3(5 10 4)
3(7 16 6)
3(7 15 8)
3(8 11 9)
3(10 14 11)
3(13 16 12)
3(13 15 14)
3(17 22 18)
3(19 24 17)
3(21 26 19)
3(20 29 21)
3(22 25 23)
3(24 27 25)
3(26 30 27)
3(29 30 28)
4(42 0 56 41)
4(45 2 1 44)
3(82 120 12)
3(82 116 6)
4(92 0 94 5)
4(93 56 94 3)
4(1 95 96 20)
4(2 95 97 28)
3(107 121 18)
3(107 125 23)
)

// regionEdges

77
(
82
83
84
85
86
87
88
89
90
91
92
93
94
95
96
97
98
99
100
101
102
103
104
105
106
107
108
109
110
111
112
113
114
115
116
117
118
119
120
121
122
123
124
125
126
127
128
129
130
131
132
133
57
58
59
60
61
62
63
64
65
66
67
68
69
70
71
72
73
74
75
76
77
78
79
80
81
)



// ************************************************************************* //
