/*--------------------------------*- C++ -*----------------------------------*\
| =========                 |                                                 |
| \\      /  F ield         | OpenFOAM: The Open Source CFD Toolbox           |
|  \\    /   O peration     | Version:  dev                                   |
|   \\  /    A nd           | Web:      www.OpenFOAM.org                      |
|    \\/     M anipulation  |                                                 |
\*---------------------------------------------------------------------------*/
FoamFile
{
    version     2.0;
    format      ascii;
    class       extendedFeatureEdgeMesh;
    location    "constant/extendedFeatureEdgeMesh";
    object      shaftStatic.extendedFeatureEdgeMesh;
}
// * * * * * * * * * * * * * * * * * * * * * * * * * * * * * * * * * * * * * //

// points

124
(
(-0.00248717 0.000252921 0.1)
(-0.0025 0 0.1)
(-0.0025 0 0.125)
(-0.00248717 0.000252921 0.125)
(-0.00244882 0.000503246 0.1)
(-0.00244882 0.000503246 0.125)
(-0.00238535 0.000748408 0.1)
(-0.00238535 0.000748408 0.125)
(-0.00229739 0.00098589 0.1)
(-0.00229739 0.00098589 0.125)
(-0.00218587 0.00121325 0.1)
(-0.00218587 0.00121325 0.125)
(-0.00205191 0.00142817 0.1)
(-0.00205191 0.00142817 0.125)
(-0.0018969 0.00162843 0.1)
(-0.0018969 0.00162843 0.125)
(-0.00172242 0.00181198 0.1)
(-0.00172242 0.00181198 0.125)
(-0.00153026 0.00197694 0.1)
(-0.00153026 0.00197694 0.125)
(-0.00132241 0.00212161 0.1)
(-0.00132241 0.00212161 0.125)
(-0.00110098 0.00224451 0.1)
(-0.00110098 0.00224451 0.125)
(-0.000868263 0.00234438 0.125)
(-0.000868263 0.00234438 0.1)
(-0.000626631 0.00242019 0.125)
(-0.000626631 0.00242019 0.1)
(-0.000378569 0.00247117 0.125)
(-0.000378569 0.00247117 0.1)
(-0.000126623 0.00249679 0.125)
(-0.000126623 0.00249679 0.1)
(0.000126623 0.00249679 0.125)
(0.000126623 0.00249679 0.1)
(0.000378569 0.00247117 0.125)
(0.000378569 0.00247117 0.1)
(0.000626631 0.00242019 0.1)
(0.000626631 0.00242019 0.125)
(0.000868263 0.00234438 0.1)
(0.000868263 0.00234438 0.125)
(0.00110098 0.00224451 0.1)
(0.00110098 0.00224451 0.125)
(0.00132241 0.00212161 0.1)
(0.00132241 0.00212161 0.125)
(0.00153026 0.00197694 0.1)
(0.00153026 0.00197694 0.125)
(0.00172242 0.00181198 0.1)
(0.00172242 0.00181198 0.125)
(0.0018969 0.00162843 0.1)
(0.0018969 0.00162843 0.125)
(0.00205191 0.00142817 0.1)
(0.00205191 0.00142817 0.125)
(0.00218587 0.00121325 0.1)
(0.00218587 0.00121325 0.125)
(0.00229739 0.00098589 0.1)
(0.00229739 0.00098589 0.125)
(0.00238535 0.000748408 0.1)
(0.00238535 0.000748408 0.125)
(0.00244882 0.000503246 0.1)
(0.00244882 0.000503246 0.125)
(0.00248717 0.000252921 0.1)
(0.00248717 0.000252921 0.125)
(0.0025 3.06162e-19 0.1)
(0.0025 3.06162e-19 0.125)
(0.00248717 -0.000252921 0.1)
(0.00248717 -0.000252921 0.125)
(0.00244882 -0.000503246 0.1)
(0.00244882 -0.000503246 0.125)
(0.00238535 -0.000748408 0.1)
(0.00238535 -0.000748408 0.125)
(0.00229739 -0.00098589 0.1)
(0.00229739 -0.00098589 0.125)
(0.00218587 -0.00121325 0.1)
(0.00218587 -0.00121325 0.125)
(0.00205191 -0.00142817 0.125)
(0.00205191 -0.00142817 0.1)
(0.0018969 -0.00162843 0.125)
(0.0018969 -0.00162843 0.1)
(0.00172242 -0.00181198 0.125)
(0.00172242 -0.00181198 0.1)
(0.00153026 -0.00197694 0.125)
(0.00153026 -0.00197694 0.1)
(0.00132241 -0.00212161 0.125)
(0.00132241 -0.00212161 0.1)
(0.00110098 -0.00224451 0.125)
(0.00110098 -0.00224451 0.1)
(0.000868263 -0.00234438 0.1)
(0.000868263 -0.00234438 0.125)
(0.000626631 -0.00242019 0.1)
(0.000626631 -0.00242019 0.125)
(0.000378569 -0.00247117 0.125)
(0.000378569 -0.00247117 0.1)
(0.000126623 -0.00249679 0.125)
(0.000126623 -0.00249679 0.1)
(-0.000126623 -0.00249679 0.125)
(-0.000126623 -0.00249679 0.1)
(-0.000378569 -0.00247117 0.125)
(-0.000378569 -0.00247117 0.1)
(-0.000626631 -0.00242019 0.125)
(-0.000626631 -0.00242019 0.1)
(-0.000868263 -0.00234438 0.125)
(-0.000868263 -0.00234438 0.1)
(-0.00110098 -0.00224451 0.125)
(-0.00110098 -0.00224451 0.1)
(-0.00132241 -0.00212161 0.125)
(-0.00132241 -0.00212161 0.1)
(-0.00153026 -0.00197694 0.125)
(-0.00153026 -0.00197694 0.1)
(-0.00172242 -0.00181198 0.125)
(-0.00172242 -0.00181198 0.1)
(-0.0018969 -0.00162843 0.125)
(-0.0018969 -0.00162843 0.1)
(-0.00205191 -0.00142817 0.125)
(-0.00205191 -0.00142817 0.1)
(-0.00218587 -0.00121325 0.125)
(-0.00218587 -0.00121325 0.1)
(-0.00229739 -0.00098589 0.125)
(-0.00229739 -0.00098589 0.1)
(-0.00238535 -0.000748408 0.125)
(-0.00238535 -0.000748408 0.1)
(-0.00244882 -0.000503246 0.125)
(-0.00244882 -0.000503246 0.1)
(-0.00248717 -0.000252921 0.125)
(-0.00248717 -0.000252921 0.1)
)

// edges

124
(
(0 1)
(2 3)
(4 0)
(3 5)
(6 4)
(5 7)
(8 6)
(7 9)
(10 8)
(9 11)
(12 10)
(11 13)
(14 12)
(13 15)
(16 14)
(15 17)
(18 16)
(17 19)
(20 18)
(19 21)
(22 20)
(21 23)
(23 24)
(25 22)
(24 26)
(27 25)
(26 28)
(29 27)
(28 30)
(31 29)
(30 32)
(33 31)
(32 34)
(35 33)
(36 35)
(34 37)
(38 36)
(37 39)
(40 38)
(39 41)
(42 40)
(41 43)
(44 42)
(43 45)
(46 44)
(45 47)
(48 46)
(47 49)
(50 48)
(49 51)
(52 50)
(51 53)
(54 52)
(53 55)
(56 54)
(55 57)
(58 56)
(57 59)
(60 58)
(59 61)
(62 60)
(61 63)
(64 62)
(63 65)
(66 64)
(65 67)
(68 66)
(67 69)
(70 68)
(69 71)
(72 70)
(71 73)
(73 74)
(75 72)
(74 76)
(77 75)
(76 78)
(79 77)
(78 80)
(81 79)
(80 82)
(83 81)
(82 84)
(85 83)
(86 85)
(84 87)
(88 86)
(87 89)
(89 90)
(91 88)
(90 92)
(93 91)
(92 94)
(95 93)
(94 96)
(97 95)
(96 98)
(99 97)
(98 100)
(101 99)
(100 102)
(103 101)
(102 104)
(105 103)
(104 106)
(107 105)
(106 108)
(109 107)
(108 110)
(111 109)
(110 112)
(113 111)
(112 114)
(115 113)
(114 116)
(117 115)
(116 118)
(119 117)
(118 120)
(121 119)
(120 122)
(123 121)
(1 123)
(122 2)
)

// concaveStart mixedStart nonFeatureStart
0 0 0
// internalStart flatStart openStart multipleStart
0 0 0 124
// normals

124
(
(-0.998716 0.0506499 0)
(-0.998716 0.0506499 0)
(-0.988469 0.151427 0)
(-0.988469 0.151427 0)
(-0.968077 0.250653 0)
(-0.968077 0.250653 0)
(-0.937753 0.347304 0)
(-0.937753 0.347304 0)
(-0.897805 0.440394 0)
(-0.897805 0.440394 0)
(-0.848645 0.528963 0)
(-0.848645 0.528963 0)
(-0.790774 0.612109 0)
(-0.790774 0.612109 0)
(-0.724793 0.688967 0)
(-0.724793 0.688967 0)
(-0.651372 0.758758 0)
(-0.651372 0.758758 0)
(-0.57127 0.820762 0)
(-0.57127 0.820762 0)
(-0.485299 0.874348 0)
(-0.485299 0.874348 0)
(-0.394356 0.918958 0)
(-0.394356 0.918958 0)
(-0.299366 0.954138 0)
(-0.299366 0.954138 0)
(-0.201299 0.97953 0)
(-0.201299 0.97953 0)
(-0.101166 0.99487 0)
(-0.101166 0.99487 0)
(0 1 -0)
(0 1 0)
(0.101166 0.99487 -0)
(0.101166 0.99487 0)
(0.201299 0.97953 0)
(0.201299 0.97953 -0)
(0.299366 0.954138 0)
(0.299366 0.954138 -0)
(0.394356 0.918958 0)
(0.394356 0.918958 -0)
(0.485299 0.874348 0)
(0.485299 0.874348 -0)
(0.57127 0.820762 0)
(0.57127 0.820762 -0)
(0.651372 0.758758 0)
(0.651372 0.758758 -0)
(0.724793 0.688967 0)
(0.724793 0.688967 -0)
(0.790774 0.612109 0)
(0.790774 0.612109 -0)
(0.848645 0.528963 0)
(0.848645 0.528963 -0)
(0.897805 0.440394 0)
(0.897805 0.440394 -0)
(0.937753 0.347304 0)
(0.937753 0.347304 -0)
(0.968077 0.250653 0)
(0.968077 0.250653 -0)
(0.988469 0.151427 0)
(0.988469 0.151427 -0)
(0.998716 0.0506499 0)
(0.998716 0.0506499 -0)
(0.998716 -0.0506499 0)
(0.998716 -0.0506499 0)
(0.988469 -0.151427 0)
(0.988469 -0.151427 0)
(0.968077 -0.250653 0)
(0.968077 -0.250653 0)
(0.937753 -0.347304 0)
(0.937753 -0.347304 0)
(0.897805 -0.440394 0)
(0.897805 -0.440394 0)
(0.848645 -0.528963 0)
(0.848645 -0.528963 0)
(0.790774 -0.612109 0)
(0.790774 -0.612109 0)
(0.724793 -0.688967 0)
(0.724793 -0.688967 0)
(0.651372 -0.758758 0)
(0.651372 -0.758758 0)
(0.57127 -0.820762 0)
(0.57127 -0.820762 0)
(0.485299 -0.874348 0)
(0.485299 -0.874348 0)
(0.394356 -0.918958 0)
(0.394356 -0.918958 0)
(0.299366 -0.954138 0)
(0.299366 -0.954138 0)
(0.201299 -0.97953 0)
(0.201299 -0.97953 0)
(0.101166 -0.99487 0)
(0.101166 -0.99487 0)
(0 -1 0)
(0 -1 0)
(-0.101166 -0.99487 0)
(-0.101166 -0.99487 0)
(-0.201299 -0.97953 0)
(-0.201299 -0.97953 0)
(-0.299366 -0.954138 0)
(-0.299366 -0.954138 0)
(-0.394356 -0.918958 0)
(-0.394356 -0.918958 0)
(-0.485299 -0.874348 0)
(-0.485299 -0.874348 0)
(-0.57127 -0.820762 0)
(-0.57127 -0.820762 0)
(-0.651372 -0.758758 0)
(-0.651372 -0.758758 0)
(-0.724793 -0.688967 0)
(-0.724793 -0.688967 0)
(-0.790774 -0.612109 0)
(-0.790774 -0.612109 0)
(-0.848645 -0.528963 0)
(-0.848645 -0.528963 0)
(-0.897805 -0.440394 0)
(-0.897805 -0.440394 0)
(-0.937753 -0.347304 0)
(-0.937753 -0.347304 0)
(-0.968077 -0.250653 0)
(-0.968077 -0.250653 0)
(-0.988469 -0.151427 0)
(-0.988469 -0.151427 0)
(-0.998716 -0.0506499 0)
(-0.998716 -0.0506499 0)
)

// normal volume types

124
(
0
0
0
0
0
0
0
0
0
0
0
0
0
0
0
0
0
0
0
0
0
0
0
0
0
0
0
0
0
0
0
0
0
0
0
0
0
0
0
0
0
0
0
0
0
0
0
0
0
0
0
0
0
0
0
0
0
0
0
0
0
0
0
0
0
0
0
0
0
0
0
0
0
0
0
0
0
0
0
0
0
0
0
0
0
0
0
0
0
0
0
0
0
0
0
0
0
0
0
0
0
0
0
0
0
0
0
0
0
0
0
0
0
0
0
0
0
0
0
0
0
0
0
0
)

// normalDirections

124
(
1(1)
1(1)
1(1)
1(1)
1(1)
1(1)
1(1)
1(1)
1(1)
1(1)
1(1)
1(1)
1(1)
1(1)
1(1)
1(1)
1(1)
1(1)
1(1)
1(1)
1(1)
1(1)
1(1)
1(1)
1(1)
1(1)
1(1)
1(1)
1(1)
1(1)
1(1)
1(1)
1(1)
1(1)
1(1)
1(1)
1(1)
1(1)
1(1)
1(1)
1(1)
1(1)
1(1)
1(1)
1(1)
1(1)
1(1)
1(1)
1(1)
1(1)
1(1)
1(1)
1(1)
1(1)
1(1)
1(1)
1(1)
1(1)
1(1)
1(1)
1(1)
1(1)
1(1)
1(1)
1(1)
1(1)
1(1)
1(1)
1(1)
1(1)
1(1)
1(1)
1(1)
1(1)
1(1)
1(1)
1(1)
1(1)
1(1)
1(1)
1(1)
1(1)
1(1)
1(1)
1(1)
1(1)
1(1)
1(1)
1(1)
1(1)
1(1)
1(1)
1(1)
1(1)
1(1)
1(1)
1(1)
1(1)
1(1)
1(1)
1(1)
1(1)
1(1)
1(1)
1(1)
1(1)
1(1)
1(1)
1(1)
1(1)
1(1)
1(1)
1(1)
1(1)
1(1)
1(1)
1(1)
1(1)
1(1)
1(1)
1(1)
1(1)
1(1)
1(1)
)

// edgeNormals

124
(
1(0)
1(1)
1(2)
1(3)
1(4)
1(5)
1(6)
1(7)
1(8)
1(9)
1(10)
1(11)
1(12)
1(13)
1(14)
1(15)
1(16)
1(17)
1(18)
1(19)
1(20)
1(21)
1(22)
1(23)
1(24)
1(25)
1(26)
1(27)
1(28)
1(29)
1(30)
1(31)
1(32)
1(33)
1(34)
1(35)
1(36)
1(37)
1(38)
1(39)
1(40)
1(41)
1(42)
1(43)
1(44)
1(45)
1(46)
1(47)
1(48)
1(49)
1(50)
1(51)
1(52)
1(53)
1(54)
1(55)
1(56)
1(57)
1(58)
1(59)
1(60)
1(61)
1(62)
1(63)
1(64)
1(65)
1(66)
1(67)
1(68)
1(69)
1(70)
1(71)
1(72)
1(73)
1(74)
1(75)
1(76)
1(77)
1(78)
1(79)
1(80)
1(81)
1(82)
1(83)
1(84)
1(85)
1(86)
1(87)
1(88)
1(89)
1(90)
1(91)
1(92)
1(93)
1(94)
1(95)
1(96)
1(97)
1(98)
1(99)
1(100)
1(101)
1(102)
1(103)
1(104)
1(105)
1(106)
1(107)
1(108)
1(109)
1(110)
1(111)
1(112)
1(113)
1(114)
1(115)
1(116)
1(117)
1(118)
1(119)
1(120)
1(121)
1(122)
1(123)
)

// featurePointNormals
0()
// featurePointEdges
0()
// regionEdges

124
(
0
1
2
3
4
5
6
7
8
9
10
11
12
13
14
15
16
17
18
19
20
21
22
23
24
25
26
27
28
29
30
31
32
33
34
35
36
37
38
39
40
41
42
43
44
45
46
47
48
49
50
51
52
53
54
55
56
57
58
59
60
61
62
63
64
65
66
67
68
69
70
71
72
73
74
75
76
77
78
79
80
81
82
83
84
85
86
87
88
89
90
91
92
93
94
95
96
97
98
99
100
101
102
103
104
105
106
107
108
109
110
111
112
113
114
115
116
117
118
119
120
121
122
123
)



// ************************************************************************* //
