/*--------------------------------*- C++ -*----------------------------------*\
| =========                 |                                                 |
| \\      /  F ield         | OpenFOAM: The Open Source CFD Toolbox           |
|  \\    /   O peration     | Version:  dev                                   |
|   \\  /    A nd           | Web:      www.OpenFOAM.org                      |
|    \\/     M anipulation  |                                                 |
\*---------------------------------------------------------------------------*/
FoamFile
{
    version     2.0;
    format      ascii;
    class       extendedFeatureEdgeMesh;
    location    "constant/extendedFeatureEdgeMesh";
    object      vessel.extendedFeatureEdgeMesh;
}
// * * * * * * * * * * * * * * * * * * * * * * * * * * * * * * * * * * * * * //

// points

382
(
(0.0153748 0.00196457 0.125)
(0.0148744 0.00199605 0.125)
(0.0139284 -0.00168866 0.125)
(0.014382 -0.00190211 0.125)
(0.00318712 -0.00385257 0.125)
(0.00404509 -0.00293893 0.125)
(0.0135421 -0.00136909 0.125)
(0.0021289 -0.00452414 0.125)
(0.0132474 -0.000963507 0.125)
(0.0130628 -0.00049738 0.125)
(0.00464888 -0.00184062 0.125)
(0.000936907 -0.00491144 0.125)
(0.013 0 0.125)
(0.00496057 -0.000626666 0.125)
(0.014382 0.00190211 0.125)
(-0.000313953 -0.00499013 0.125)
(0.0130628 0.00049738 0.125)
(0.00496057 0.000626666 0.125)
(-0.00154508 -0.00475528 0.125)
(0.0132474 0.000963507 0.125)
(0.0135421 0.00136909 0.125)
(0.00464888 0.00184062 0.125)
(-0.00267913 -0.00422164 0.125)
(0.0139284 0.00168866 0.125)
(0.00404509 0.00293893 0.125)
(-0.00364484 -0.00342274 0.125)
(0.00318712 0.00385257 0.125)
(-0.00438153 -0.00240877 0.125)
(0.0162749 -0.00154103 0.125)
(0.016618 -0.00117557 0.125)
(0.0158516 -0.00180965 0.125)
(0.0168596 -0.000736249 0.125)
(0.0021289 0.00452414 0.125)
(0.0153748 -0.00196457 0.125)
(0.0169842 -0.000250666 0.125)
(-0.00484292 -0.00124345 0.125)
(0.0148744 -0.00199605 0.125)
(0.0169842 0.000250666 0.125)
(0.000936907 0.00491144 0.125)
(-0.005 0 0.125)
(0.0168596 0.000736249 0.125)
(-0.000313953 0.00499013 0.125)
(0.016618 0.00117557 0.125)
(-0.00484292 0.00124345 0.125)
(-0.00154508 0.00475528 0.125)
(0.0162749 0.00154103 0.125)
(-0.00438153 0.00240877 0.125)
(-0.00267913 0.00422164 0.125)
(0.0158516 0.00180965 0.125)
(-0.00364484 0.00342274 0.125)
(-0.0199351 0.00160933 0.1)
(-0.02 0 0.1)
(-0.019741 0.00320823 0.1)
(-0.0194188 0.00478631 0.1)
(-0.0189707 0.00633336 0.1)
(-0.0183996 0.00783933 0.1)
(-0.0177091 0.00929446 0.1)
(-0.0169038 0.0106893 0.1)
(-0.0159889 0.0120149 0.1)
(-0.0149702 0.0132624 0.1)
(-0.0138545 0.0144241 0.1)
(-0.0126489 0.0154921 0.1)
(-0.0113613 0.0164597 0.1)
(-0.01 0.0173205 0.1)
(-0.00857385 0.018069 0.1)
(-0.0070921 0.0187003 0.1)
(-0.00556435 0.0192104 0.1)
(-0.00400051 0.0195958 0.1)
(-0.00241073 0.0198542 0.1)
(-0.000805319 0.0199838 0.1)
(0.000805319 0.0199838 0.1)
(0.00241073 0.0198542 0.1)
(0.00400051 0.0195958 0.1)
(0.00556435 0.0192104 0.1)
(0.0070921 0.0187003 0.1)
(0.00857385 0.018069 0.1)
(0.01 0.0173205 0.1)
(0.0113613 0.0164597 0.1)
(0.0126489 0.0154921 0.1)
(0.0138545 0.0144241 0.1)
(0.0149702 0.0132624 0.1)
(0.0159889 0.0120149 0.1)
(0.0169038 0.0106893 0.1)
(0.0177091 0.00929446 0.1)
(0.0183996 0.00783933 0.1)
(0.0189707 0.00633336 0.1)
(0.0194188 0.00478631 0.1)
(0.019741 0.00320823 0.1)
(0.0199351 0.00160933 0.1)
(0.02 -6.43249e-18 0.1)
(0.0199351 -0.00160933 0.1)
(0.019741 -0.00320823 0.1)
(0.0194188 -0.00478631 0.1)
(0.0189707 -0.00633336 0.1)
(0.0183996 -0.00783933 0.1)
(0.0177091 -0.00929446 0.1)
(0.0169038 -0.0106893 0.1)
(0.0159889 -0.0120149 0.1)
(0.0149702 -0.0132624 0.1)
(0.0138545 -0.0144241 0.1)
(0.0126489 -0.0154921 0.1)
(0.0113613 -0.0164597 0.1)
(0.01 -0.0173205 0.1)
(0.00857385 -0.018069 0.1)
(0.0070921 -0.0187003 0.1)
(0.00556435 -0.0192104 0.1)
(0.00400051 -0.0195958 0.1)
(0.00241073 -0.0198542 0.1)
(0.000805319 -0.0199838 0.1)
(-0.000805319 -0.0199838 0.1)
(-0.00241073 -0.0198542 0.1)
(-0.00400051 -0.0195958 0.1)
(-0.00556435 -0.0192104 0.1)
(-0.0070921 -0.0187003 0.1)
(-0.00857385 -0.018069 0.1)
(-0.01 -0.0173205 0.1)
(-0.0113613 -0.0164597 0.1)
(-0.0126489 -0.0154921 0.1)
(-0.0138545 -0.0144241 0.1)
(-0.0149702 -0.0132624 0.1)
(-0.0159889 -0.0120149 0.1)
(-0.0169038 -0.0106893 0.1)
(-0.0177091 -0.00929446 0.1)
(-0.0183996 -0.00783933 0.1)
(-0.0189707 -0.00633336 0.1)
(-0.0194188 -0.00478631 0.1)
(-0.019741 -0.00320823 0.1)
(-0.0199351 -0.00160933 0.1)
(-0.0199351 0.00160933 0)
(-0.02 0 0)
(-0.019741 0.00320823 0)
(-0.0194188 0.00478631 0)
(-0.0189707 0.00633336 0)
(-0.0183996 0.00783933 0)
(-0.0177091 0.00929446 0)
(-0.0169038 0.0106893 0)
(-0.0159889 0.0120149 0)
(-0.0149702 0.0132624 0)
(-0.0138545 0.0144241 0)
(-0.0126489 0.0154921 0)
(-0.0113613 0.0164597 0)
(-0.01 0.0173205 0)
(-0.00857385 0.018069 0)
(-0.0070921 0.0187003 0)
(-0.00556435 0.0192104 0)
(-0.00400051 0.0195958 0)
(-0.00241073 0.0198542 0)
(-0.000805319 0.0199838 0)
(0.000805319 0.0199838 0)
(0.00241073 0.0198542 0)
(0.00400051 0.0195958 0)
(0.00556435 0.0192104 0)
(0.0070921 0.0187003 0)
(0.00857385 0.018069 0)
(0.01 0.0173205 0)
(0.0113613 0.0164597 0)
(0.0126489 0.0154921 0)
(0.0138545 0.0144241 0)
(0.0149702 0.0132624 0)
(0.0159889 0.0120149 0)
(0.0169038 0.0106893 0)
(0.0177091 0.00929446 0)
(0.0183996 0.00783933 0)
(0.0189707 0.00633336 0)
(0.0194188 0.00478631 0)
(0.019741 0.00320823 0)
(0.0199351 0.00160933 0)
(0.02 -6.43249e-18 0)
(0.0199351 -0.00160933 0)
(0.019741 -0.00320823 0)
(0.0194188 -0.00478631 0)
(0.0189707 -0.00633336 0)
(0.0183996 -0.00783933 0)
(0.0177091 -0.00929446 0)
(0.0169038 -0.0106893 0)
(0.0159889 -0.0120149 0)
(0.0149702 -0.0132624 0)
(0.0138545 -0.0144241 0)
(0.0126489 -0.0154921 0)
(0.0113613 -0.0164597 0)
(0.01 -0.0173205 0)
(0.00857385 -0.018069 0)
(0.0070921 -0.0187003 0)
(0.00556435 -0.0192104 0)
(0.00400051 -0.0195958 0)
(0.00241073 -0.0198542 0)
(0.000805319 -0.0199838 0)
(-0.000805319 -0.0199838 0)
(-0.00241073 -0.0198542 0)
(-0.00400051 -0.0195958 0)
(-0.00556435 -0.0192104 0)
(-0.0070921 -0.0187003 0)
(-0.00857385 -0.018069 0)
(-0.01 -0.0173205 0)
(-0.0113613 -0.0164597 0)
(-0.0126489 -0.0154921 0)
(-0.0138545 -0.0144241 0)
(-0.0149702 -0.0132624 0)
(-0.0159889 -0.0120149 0)
(-0.0169038 -0.0106893 0)
(-0.0177091 -0.00929446 0)
(-0.0183996 -0.00783933 0)
(-0.0189707 -0.00633336 0)
(-0.0194188 -0.00478631 0)
(-0.019741 -0.00320823 0)
(-0.0199351 -0.00160933 0)
(0.0119812 -0.021942 0.1)
(0.013516 -0.0210313 0.1)
(-0.0210313 0.013516 0.1)
(-0.021942 0.0119812 0.1)
(-0.00704331 0.0239873 0.1)
(-0.0087366 0.0234237 0.1)
(0.0234237 -0.0087366 0.1)
(0.0239873 -0.00704331 0.1)
(0.0149819 -0.0200135 0.1)
(-0.0200135 0.0149819 0.1)
(0.00178348 0.0249363 0.1)
(-7.08192e-18 0.025 0.1)
(0.025 2.52661e-17 0.1)
(0.0249363 0.00178348 0.1)
(-0.0188937 0.0163715 0.1)
(0.0163715 -0.0188937 0.1)
(-0.00531413 0.0244287 0.1)
(0.0244287 -0.00531413 0.1)
(-0.0176777 -0.0176777 0.1)
(-0.0163715 -0.0188937 0.1)
(-0.0188937 -0.0163715 0.1)
(-0.0149819 -0.0200135 0.1)
(-0.0176777 0.0176777 0.1)
(-0.0200135 -0.0149819 0.1)
(-0.0210313 -0.013516 0.1)
(0.0176777 -0.0176777 0.1)
(-0.013516 -0.0210313 0.1)
(-0.021942 -0.0119812 0.1)
(-0.0119812 -0.021942 0.1)
(-0.0227408 -0.0103854 0.1)
(-0.0103854 -0.0227408 0.1)
(-0.0163715 0.0188937 0.1)
(0.0188937 -0.0163715 0.1)
(-0.0234237 -0.0087366 0.1)
(-0.0087366 -0.0234237 0.1)
(-0.0239873 -0.00704331 0.1)
(-0.00355787 0.0247455 0.1)
(0.0247455 -0.00355787 0.1)
(-0.00704331 -0.0239873 0.1)
(-0.00531413 -0.0244287 0.1)
(-0.0244287 -0.00531413 0.1)
(-0.0149819 0.0200135 0.1)
(0.0200135 -0.0149819 0.1)
(-0.00355787 -0.0247455 0.1)
(-0.0247455 -0.00355787 0.1)
(-0.00178348 -0.0249363 0.1)
(-0.0249363 -0.00178348 0.1)
(4.90013e-17 -0.025 0.1)
(-0.0249363 0.00178348 0.1)
(-0.025 0 0.1)
(-0.013516 0.0210313 0.1)
(0.0210313 -0.013516 0.1)
(-0.00178348 0.0249363 0.1)
(0.0249363 -0.00178348 0.1)
(0.00178348 -0.0249363 0.1)
(-0.0247455 0.00355787 0.1)
(0.00355787 -0.0247455 0.1)
(-0.0244287 0.00531413 0.1)
(-0.0119812 0.021942 0.1)
(0.021942 -0.0119812 0.1)
(0.00355787 0.0247455 0.1)
(0.00531413 -0.0244287 0.1)
(0.0247455 0.00355787 0.1)
(0.00531413 0.0244287 0.1)
(0.0244287 0.00531413 0.1)
(-0.0239873 0.00704331 0.1)
(0.00704331 0.0239873 0.1)
(0.0239873 0.00704331 0.1)
(0.0087366 0.0234237 0.1)
(0.00704331 -0.0239873 0.1)
(0.0087366 -0.0234237 0.1)
(0.0234237 0.0087366 0.1)
(-0.0234237 0.0087366 0.1)
(-0.0103854 0.0227408 0.1)
(0.0227408 -0.0103854 0.1)
(0.0227408 0.0103854 0.1)
(0.0103854 0.0227408 0.1)
(0.0119812 0.021942 0.1)
(0.021942 0.0119812 0.1)
(0.0210313 0.013516 0.1)
(0.013516 0.0210313 0.1)
(0.0149819 0.0200135 0.1)
(0.0200135 0.0149819 0.1)
(0.0103854 -0.0227408 0.1)
(0.0163715 0.0188937 0.1)
(0.0188937 0.0163715 0.1)
(-0.0227408 0.0103854 0.1)
(0.0176777 0.0176777 0.1)
(-0.0249363 0.00178348 0.125)
(-0.025 0 0.125)
(-0.0247455 0.00355787 0.125)
(-0.0244287 0.00531413 0.125)
(-0.0239873 0.00704331 0.125)
(-0.0234237 0.0087366 0.125)
(-0.0227408 0.0103854 0.125)
(-0.021942 0.0119812 0.125)
(-0.0210313 0.013516 0.125)
(-0.0200135 0.0149819 0.125)
(-0.0188937 0.0163715 0.125)
(-0.0176777 0.0176777 0.125)
(-0.0163715 0.0188937 0.125)
(-0.0149819 0.0200135 0.125)
(-0.013516 0.0210313 0.125)
(-0.0119812 0.021942 0.125)
(-0.0103854 0.0227408 0.125)
(-0.0087366 0.0234237 0.125)
(-0.00704331 0.0239873 0.125)
(-0.00531413 0.0244287 0.125)
(-0.00355787 0.0247455 0.125)
(-0.00178348 0.0249363 0.125)
(-7.08192e-18 0.025 0.125)
(0.00178348 0.0249363 0.125)
(0.00355787 0.0247455 0.125)
(0.00531413 0.0244287 0.125)
(0.00704331 0.0239873 0.125)
(0.0087366 0.0234237 0.125)
(0.0103854 0.0227408 0.125)
(0.0119812 0.021942 0.125)
(0.013516 0.0210313 0.125)
(0.0149819 0.0200135 0.125)
(0.0163715 0.0188937 0.125)
(0.0176777 0.0176777 0.125)
(0.0188937 0.0163715 0.125)
(0.0200135 0.0149819 0.125)
(0.0210313 0.013516 0.125)
(0.021942 0.0119812 0.125)
(0.0227408 0.0103854 0.125)
(0.0234237 0.0087366 0.125)
(0.0239873 0.00704331 0.125)
(0.0244287 0.00531413 0.125)
(0.0247455 0.00355787 0.125)
(0.0249363 0.00178348 0.125)
(0.025 2.52661e-17 0.125)
(0.0249363 -0.00178348 0.125)
(0.0247455 -0.00355787 0.125)
(0.0244287 -0.00531413 0.125)
(0.0239873 -0.00704331 0.125)
(0.0234237 -0.0087366 0.125)
(0.0227408 -0.0103854 0.125)
(0.021942 -0.0119812 0.125)
(0.0210313 -0.013516 0.125)
(0.0200135 -0.0149819 0.125)
(0.0188937 -0.0163715 0.125)
(0.0176777 -0.0176777 0.125)
(0.0163715 -0.0188937 0.125)
(0.0149819 -0.0200135 0.125)
(0.013516 -0.0210313 0.125)
(0.0119812 -0.021942 0.125)
(0.0103854 -0.0227408 0.125)
(0.0087366 -0.0234237 0.125)
(0.00704331 -0.0239873 0.125)
(0.00531413 -0.0244287 0.125)
(0.00355787 -0.0247455 0.125)
(0.00178348 -0.0249363 0.125)
(4.90013e-17 -0.025 0.125)
(-0.00178348 -0.0249363 0.125)
(-0.00355787 -0.0247455 0.125)
(-0.00531413 -0.0244287 0.125)
(-0.00704331 -0.0239873 0.125)
(-0.0087366 -0.0234237 0.125)
(-0.0103854 -0.0227408 0.125)
(-0.0119812 -0.021942 0.125)
(-0.013516 -0.0210313 0.125)
(-0.0149819 -0.0200135 0.125)
(-0.0163715 -0.0188937 0.125)
(-0.0176777 -0.0176777 0.125)
(-0.0188937 -0.0163715 0.125)
(-0.0200135 -0.0149819 0.125)
(-0.0210313 -0.013516 0.125)
(-0.021942 -0.0119812 0.125)
(-0.0227408 -0.0103854 0.125)
(-0.0234237 -0.0087366 0.125)
(-0.0239873 -0.00704331 0.125)
(-0.0244287 -0.00531413 0.125)
(-0.0247455 -0.00355787 0.125)
(-0.0249363 -0.00178348 0.125)
)

// edges

382
(
(50 51)
(52 50)
(53 52)
(54 53)
(55 54)
(56 55)
(57 56)
(58 57)
(59 58)
(60 59)
(61 60)
(62 61)
(63 62)
(64 63)
(65 64)
(66 65)
(67 66)
(68 67)
(69 68)
(70 69)
(71 70)
(72 71)
(73 72)
(74 73)
(75 74)
(76 75)
(77 76)
(78 77)
(79 78)
(80 79)
(81 80)
(82 81)
(83 82)
(84 83)
(85 84)
(86 85)
(87 86)
(88 87)
(89 88)
(90 89)
(91 90)
(92 91)
(93 92)
(94 93)
(95 94)
(96 95)
(97 96)
(98 97)
(99 98)
(100 99)
(101 100)
(102 101)
(103 102)
(104 103)
(105 104)
(106 105)
(107 106)
(108 107)
(109 108)
(110 109)
(111 110)
(112 111)
(113 112)
(114 113)
(115 114)
(116 115)
(117 116)
(118 117)
(119 118)
(120 119)
(121 120)
(122 121)
(123 122)
(124 123)
(125 124)
(126 125)
(127 126)
(51 127)
(128 129)
(130 128)
(131 130)
(132 131)
(133 132)
(134 133)
(135 134)
(136 135)
(137 136)
(138 137)
(139 138)
(140 139)
(141 140)
(142 141)
(143 142)
(144 143)
(145 144)
(146 145)
(147 146)
(148 147)
(149 148)
(150 149)
(151 150)
(152 151)
(153 152)
(154 153)
(155 154)
(156 155)
(157 156)
(158 157)
(159 158)
(160 159)
(161 160)
(162 161)
(163 162)
(164 163)
(165 164)
(166 165)
(167 166)
(168 167)
(169 168)
(170 169)
(171 170)
(172 171)
(173 172)
(174 173)
(175 174)
(176 175)
(177 176)
(178 177)
(179 178)
(180 179)
(181 180)
(182 181)
(183 182)
(184 183)
(185 184)
(186 185)
(187 186)
(188 187)
(189 188)
(190 189)
(191 190)
(192 191)
(193 192)
(194 193)
(195 194)
(196 195)
(197 196)
(198 197)
(199 198)
(200 199)
(201 200)
(202 201)
(203 202)
(204 203)
(205 204)
(129 205)
(206 207)
(208 209)
(210 211)
(212 213)
(207 214)
(215 208)
(216 217)
(218 219)
(220 215)
(214 221)
(222 210)
(213 223)
(224 225)
(226 224)
(225 227)
(228 220)
(229 226)
(230 229)
(221 231)
(227 232)
(233 230)
(232 234)
(235 233)
(234 236)
(237 228)
(231 238)
(239 235)
(236 240)
(241 239)
(242 222)
(223 243)
(244 245)
(240 244)
(246 241)
(247 237)
(238 248)
(245 249)
(250 246)
(249 251)
(252 250)
(251 253)
(254 255)
(256 247)
(255 252)
(248 257)
(258 242)
(243 259)
(253 260)
(261 254)
(260 262)
(263 261)
(264 256)
(257 265)
(266 216)
(262 267)
(219 268)
(269 266)
(268 270)
(271 263)
(272 269)
(270 273)
(274 272)
(275 276)
(267 275)
(273 277)
(278 271)
(279 264)
(265 280)
(277 281)
(282 274)
(217 258)
(259 218)
(283 282)
(281 284)
(284 285)
(286 283)
(287 286)
(285 288)
(276 289)
(290 287)
(288 291)
(292 278)
(291 293)
(293 290)
(289 206)
(209 292)
(211 279)
(280 212)
(294 295)
(296 294)
(297 296)
(298 297)
(299 298)
(300 299)
(301 300)
(302 301)
(303 302)
(304 303)
(305 304)
(306 305)
(307 306)
(308 307)
(309 308)
(310 309)
(311 310)
(312 311)
(313 312)
(314 313)
(315 314)
(316 315)
(317 316)
(318 317)
(319 318)
(320 319)
(321 320)
(322 321)
(323 322)
(324 323)
(325 324)
(326 325)
(327 326)
(328 327)
(329 328)
(330 329)
(331 330)
(332 331)
(333 332)
(334 333)
(335 334)
(336 335)
(337 336)
(338 337)
(339 338)
(340 339)
(341 340)
(342 341)
(343 342)
(344 343)
(345 344)
(346 345)
(347 346)
(348 347)
(349 348)
(350 349)
(351 350)
(352 351)
(353 352)
(354 353)
(355 354)
(356 355)
(357 356)
(358 357)
(359 358)
(360 359)
(361 360)
(362 361)
(363 362)
(364 363)
(365 364)
(366 365)
(367 366)
(368 367)
(369 368)
(370 369)
(371 370)
(372 371)
(373 372)
(374 373)
(375 374)
(376 375)
(377 376)
(378 377)
(379 378)
(380 379)
(381 380)
(295 381)
(0 1)
(2 3)
(4 5)
(6 2)
(7 4)
(8 6)
(9 8)
(5 10)
(11 7)
(12 9)
(10 13)
(1 14)
(15 11)
(16 12)
(13 17)
(18 15)
(19 16)
(20 19)
(17 21)
(22 18)
(23 20)
(21 24)
(25 22)
(14 23)
(24 26)
(27 25)
(28 29)
(30 28)
(29 31)
(26 32)
(33 30)
(31 34)
(35 27)
(36 33)
(34 37)
(32 38)
(39 35)
(3 36)
(37 40)
(38 41)
(40 42)
(43 39)
(41 44)
(42 45)
(46 43)
(44 47)
(45 48)
(49 46)
(47 49)
(48 0)
)

// concaveStart mixedStart nonFeatureStart
0 0 0
// internalStart flatStart openStart multipleStart
78 332 332 382
// normals

712
(
(0 0 -1)
(0 0 -1)
(0 -0 -1)
(0 0 -1)
(0 0 -1)
(0 0 -1)
(0 0 -1)
(0 -0 -1)
(0 0 -1)
(0 0 -1)
(0 -0 -1)
(0 0 -1)
(0 0 -1)
(0 0 -1)
(0 0 -1)
(0 -0 -1)
(0 0 -1)
(0 0 -1)
(0 0 -1)
(0 -0 -1)
(0 0 -1)
(0 0 -1)
(0 -0 -1)
(0 0 -1)
(0 0 -1)
(0 0 -1)
(0 -0 -1)
(0 0 -1)
(0 -0 -1)
(0 0 -1)
(0 0 -1)
(0 -0 -1)
(0 0 -1)
(0 0 -1)
(0 0 -1)
(0 0 -1)
(0 0 -1)
(0 0 -1)
(0 0 -1)
(0 0 -1)
(0 0 -1)
(0 0 -1)
(0 0 -1)
(0 0 -1)
(0 0 -1)
(0 0 -1)
(0 0 -1)
(0 0 -1)
(0 0 -1)
(0 0 -1)
(0.999189 -0.0402635 0)
(0 0 1)
(0.992709 -0.120536 0)
(0 0 1)
(0.97979 -0.200027 0)
(0 0 1)
(0.960518 -0.278219 0)
(0 0 1)
(0.935016 -0.354604 0)
(0 0 1)
(0.90345 -0.428694 0)
(0 0 1)
(0.866026 -0.499999 0)
(0 0 1)
(0.822986 -0.568062 0)
(0 0 1)
(0.7746 -0.632451 0)
(0 0 1)
(0.721206 -0.692721 0)
(0 0 1)
(0.663123 -0.748511 0)
(0 0 1)
(0.60074 -0.799444 0)
(0 0 1)
(0.534467 -0.845189 0)
(0 0 1)
(0.464723 -0.885456 0)
(0 0 1)
(0.391964 -0.919981 0)
(0 0 1)
(0.316669 -0.948536 0)
(0 0 1)
(0.239315 -0.970942 0)
(0 0 1)
(0.160415 -0.98705 0)
(0 0 1)
(0.0804645 -0.996757 0)
(0 0 1)
(-0 -1 -0)
(0 0 1)
(-0.0804645 -0.996757 -0)
(0 0 1)
(-0.160415 -0.98705 -0)
(0 0 1)
(-0.239315 -0.970942 -0)
(0 0 1)
(-0.316669 -0.948536 -0)
(0 0 1)
(-0.391964 -0.919981 -0)
(0 0 1)
(-0.464723 -0.885456 -0)
(0 0 1)
(-0.534467 -0.845189 -0)
(0 0 1)
(-0.60074 -0.799444 -0)
(0 0 1)
(-0.663123 -0.748511 -0)
(0 0 1)
(-0.721206 -0.692721 -0)
(0 0 1)
(-0.7746 -0.632451 -0)
(0 0 1)
(-0.822986 -0.568062 -0)
(0 0 1)
(-0.866026 -0.499999 -0)
(0 0 1)
(-0.90345 -0.428694 -0)
(0 0 1)
(-0.935016 -0.354604 -0)
(0 0 1)
(-0.960518 -0.278219 -0)
(0 0 1)
(-0.97979 -0.200027 -0)
(0 0 1)
(-0.992709 -0.120536 -0)
(0 0 1)
(-0.999189 -0.0402635 -0)
(0 0 1)
(-0.999189 0.0402635 0)
(0 0 1)
(-0.992709 0.120536 0)
(0 0 1)
(-0.97979 0.200027 0)
(0 0 1)
(-0.960518 0.278219 0)
(0 0 1)
(-0.935016 0.354604 0)
(0 0 1)
(-0.90345 0.428694 0)
(0 0 1)
(-0.866026 0.499999 0)
(0 0 1)
(-0.822986 0.568062 0)
(0 0 1)
(-0.7746 0.632451 0)
(0 0 1)
(-0.721206 0.692721 0)
(0 0 1)
(-0.663123 0.748511 0)
(0 0 1)
(-0.60074 0.799444 0)
(0 0 1)
(-0.534467 0.845189 0)
(0 0 1)
(-0.464723 0.885456 0)
(0 0 1)
(-0.391964 0.919981 0)
(0 0 1)
(-0.316669 0.948536 0)
(0 0 1)
(-0.239315 0.970942 0)
(0 0 1)
(-0.160415 0.98705 0)
(0 0 1)
(-0.0804645 0.996757 0)
(0 0 1)
(-0 1 0)
(0 0 1)
(0.0804645 0.996757 0)
(0 0 1)
(0.160415 0.98705 0)
(0 0 1)
(0.239315 0.970942 0)
(0 0 1)
(0.316669 0.948536 0)
(0 0 1)
(0.391964 0.919981 0)
(0 0 1)
(0.464723 0.885456 0)
(0 0 1)
(0.534467 0.845189 0)
(0 0 1)
(0.60074 0.799444 0)
(0 0 1)
(0.663123 0.748511 0)
(0 0 1)
(0.721206 0.692721 0)
(0 0 1)
(0.7746 0.632451 0)
(0 0 1)
(0.822986 0.568062 0)
(0 0 1)
(0.866026 0.499999 0)
(0 0 1)
(0.90345 0.428694 0)
(0 0 1)
(0.935016 0.354604 0)
(0 0 1)
(0.960518 0.278219 0)
(0 0 1)
(0.97979 0.200027 0)
(0 0 1)
(0.992709 0.120536 0)
(0 0 1)
(0.999189 0.0402635 0)
(0 0 1)
(0 0 1)
(0.999189 -0.0402635 0)
(0 0 1)
(0.992709 -0.120536 0)
(0 0 1)
(0.97979 -0.200027 0)
(0 0 1)
(0.960518 -0.278219 0)
(0 0 1)
(0.935016 -0.354604 0)
(0 0 1)
(0.90345 -0.428694 0)
(0 0 1)
(0.866026 -0.499999 0)
(0 0 1)
(0.822986 -0.568062 0)
(0 0 1)
(0.7746 -0.632451 0)
(0 0 1)
(0.721206 -0.692721 0)
(0 0 1)
(0.663123 -0.748511 0)
(0 0 1)
(0.60074 -0.799444 0)
(0 0 1)
(0.534467 -0.845189 0)
(0 0 1)
(0.464723 -0.885456 0)
(0 0 1)
(0.391964 -0.919981 0)
(0 0 1)
(0.316669 -0.948536 0)
(0 0 1)
(0.239315 -0.970942 0)
(0 0 1)
(0.160415 -0.98705 0)
(0 0 1)
(0.0804645 -0.996757 0)
(0 0 1)
(0 -1 0)
(0 0 1)
(-0.0804645 -0.996757 -0)
(0 0 1)
(-0.160415 -0.98705 -0)
(0 0 1)
(-0.239315 -0.970942 -0)
(0 0 1)
(-0.316669 -0.948536 -0)
(0 0 1)
(-0.391964 -0.919981 -0)
(0 0 1)
(-0.464723 -0.885456 -0)
(0 0 1)
(-0.534467 -0.845189 -0)
(0 0 1)
(-0.60074 -0.799444 -0)
(-0.663123 -0.748511 -0)
(0 0 1)
(-0.721206 -0.692721 -0)
(-0.7746 -0.632451 -0)
(0 0 1)
(-0.822986 -0.568062 -0)
(0 0 1)
(-0.866026 -0.499999 -0)
(0 0 1)
(-0.90345 -0.428694 -0)
(0 0 1)
(-0.935016 -0.354604 -0)
(0 0 1)
(-0.960518 -0.278219 -0)
(0 0 1)
(-0.97979 -0.200027 -0)
(0 0 1)
(-0.992709 -0.120536 -0)
(0 0 1)
(-0.999189 -0.0402635 -0)
(0 0 1)
(-0.999189 0.0402635 0)
(0 0 1)
(-0.992709 0.120536 0)
(0 0 1)
(-0.97979 0.200027 0)
(0 0 1)
(-0.960518 0.278219 0)
(0 0 1)
(-0.935016 0.354604 0)
(0 0 1)
(-0.90345 0.428694 0)
(0 0 1)
(-0.866026 0.499999 0)
(0 0 1)
(-0.822986 0.568062 0)
(0 0 1)
(-0.7746 0.632451 0)
(0 0 1)
(-0.721206 0.692721 0)
(0 0 1)
(-0.663123 0.748511 0)
(0 0 1)
(-0.60074 0.799444 0)
(0 0 1)
(-0.534467 0.845189 0)
(0 0 1)
(-0.464723 0.885456 0)
(0 0 1)
(-0.391964 0.919981 0)
(0 0 1)
(-0.316669 0.948536 0)
(0 0 1)
(-0.239315 0.970942 0)
(0 0 1)
(-0.160415 0.98705 0)
(0 0 1)
(-0.0804645 0.996757 0)
(0 0 1)
(0 1 0)
(0 0 1)
(0.0804645 0.996757 0)
(0 0 1)
(0.160415 0.98705 0)
(0 0 1)
(0.239315 0.970942 0)
(0 0 1)
(0.316669 0.948536 0)
(0 0 1)
(0.391964 0.919981 0)
(0 0 1)
(0.464723 0.885456 0)
(0 0 1)
(0.534467 0.845189 0)
(0 0 1)
(0.60074 0.799444 0)
(0 0 1)
(0.663123 0.748511 0)
(0 0 1)
(0.721206 0.692721 0)
(0 0 1)
(0.7746 0.632451 0)
(0 0 1)
(0.822986 0.568062 0)
(0 0 1)
(0.866026 0.499999 0)
(0 0 1)
(0.90345 0.428694 0)
(0 0 1)
(0.935016 0.354604 0)
(0 0 1)
(0.960518 0.278219 0)
(0 0 1)
(0.97979 0.200027 0)
(0 0 1)
(0.992709 0.120536 0)
(0 0 1)
(0.999189 0.0402635 0)
(0 0 1)
(-0.510266 0.860017 0)
(0 0 1)
(0.860017 -0.510266 0)
(0 0 1)
(0.315798 -0.948826 0)
(0 0 1)
(-0.948826 0.315798 0)
(0 0 1)
(-0.570324 0.82142 0)
(0 0 1)
(0.82142 -0.570324 0)
(0 0 1)
(-0.0356943 -0.999363 -0)
(0 0 1)
(-0.999363 -0.0356943 -0)
(0 0 1)
(0.778643 -0.627468 0)
(0 0 1)
(-0.627468 0.778643 0)
(0 0 1)
(0.247308 -0.968937 0)
(0 0 1)
(-0.968937 0.247308 0)
(0 0 1)
(0.681418 0.731895 0)
(0 0 1)
(0.731895 0.681418 0)
(0 0 1)
(0.627468 0.778643 0)
(0 0 1)
(0.731895 -0.681418 0)
(0 0 1)
(0.778643 0.627468 0)
(0 0 1)
(0.82142 0.570324 0)
(0 0 1)
(-0.681418 0.731895 0)
(0 0 1)
(0.570324 0.82142 0)
(0 0 1)
(0.860017 0.510266 0)
(0 0 1)
(0.510266 0.860017 0)
(0 0 1)
(0.894223 0.447622 0)
(0 0 1)
(0.447622 0.894223 0)
(0 0 1)
(0.681418 -0.731895 0)
(0 0 1)
(-0.731895 0.681418 0)
(0 0 1)
(0.92388 0.382681 0)
(0 0 1)
(0.382681 0.92388 0)
(0 0 1)
(0.948826 0.315798 0)
(0 0 1)
(0.177557 -0.984111 0)
(0 0 1)
(-0.984111 0.177557 0)
(0 0 1)
(0.247308 0.968937 0)
(0 0 1)
(0.315798 0.948826 0)
(0 0 1)
(0.968937 0.247308 0)
(0 0 1)
(0.627468 -0.778643 0)
(0 0 1)
(-0.778643 0.627468 0)
(0 0 1)
(0.177557 0.984111 0)
(0 0 1)
(0.984111 0.177557 0)
(0 0 1)
(0.106891 0.994271 0)
(0 0 1)
(0.994271 0.106891 0)
(0 0 1)
(0.0356943 0.999363 0)
(0 0 1)
(0.999363 -0.0356943 0)
(0 0 1)
(0.570324 -0.82142 0)
(0 0 1)
(0.999363 0.0356943 0)
(0 0 1)
(-0.82142 0.570324 0)
(0 0 1)
(0.106891 -0.994271 0)
(0 0 1)
(-0.994271 0.106891 0)
(0 0 1)
(-0.0356943 0.999363 0)
(0 0 1)
(0.994271 -0.106891 0)
(0 0 1)
(-0.106891 0.994271 0)
(0 0 1)
(0.984111 -0.177557 0)
(0 0 1)
(0.510266 -0.860017 0)
(0 0 1)
(-0.860017 0.510266 0)
(0 0 1)
(-0.106891 -0.994271 -0)
(0 0 1)
(-0.177557 0.984111 0)
(0 0 1)
(-0.994271 -0.106891 -0)
(0 0 1)
(-0.177557 -0.984111 -0)
(0 0 1)
(-0.984111 -0.177557 -0)
(0 0 1)
(0.968937 -0.247308 0)
(0 0 1)
(-0.247308 -0.968937 -0)
(0 0 1)
(-0.968937 -0.247308 -0)
(0 0 1)
(-0.315798 -0.948826 -0)
(0 0 1)
(-0.315798 0.948826 0)
(0 0 1)
(-0.247308 0.968937 0)
(0 0 1)
(-0.948826 -0.315798 -0)
(0 0 1)
(0.948826 -0.315798 0)
(0 0 1)
(0.447622 -0.894223 0)
(0 0 1)
(-0.894223 0.447622 0)
(0 0 1)
(-0.92388 -0.382681 -0)
(0 0 1)
(-0.382681 -0.92388 -0)
(0 0 1)
(0.0356943 -0.999363 0)
(0 0 1)
(-0.999363 0.0356943 0)
(0 0 1)
(-0.447622 -0.894223 -0)
(0 0 1)
(-0.894223 -0.447622 -0)
(0 0 1)
(-0.860017 -0.510266 -0)
(0 0 1)
(-0.510266 -0.860017 -0)
(0 0 1)
(-0.570324 -0.82142 -0)
(0 0 1)
(-0.82142 -0.570324 -0)
(0 0 1)
(-0.382681 0.92388 0)
(0 0 1)
(-0.627468 -0.778643 -0)
(0 0 1)
(-0.778643 -0.627468 -0)
(0 0 1)
(0.92388 -0.382681 0)
(0 0 1)
(-0.731895 -0.681418 -0)
(0 0 1)
(-0.681418 -0.731895 -0)
(0 0 1)
(-0.447622 0.894223 0)
(0 0 1)
(0.894223 -0.447622 0)
(0 0 1)
(0.382681 -0.92388 0)
(0 0 1)
(-0.92388 0.382681 0)
(0.999363 -0.0356943 0)
(0 -0 -1)
(0.994271 -0.106891 0)
(0 -0 -1)
(0.984111 -0.177557 0)
(0 -0 -1)
(0.968937 -0.247308 0)
(0 -0 -1)
(0.948826 -0.315798 0)
(0 -0 -1)
(0.92388 -0.382681 0)
(0 -0 -1)
(0.894223 -0.447622 0)
(0 -0 -1)
(0.860017 -0.510266 0)
(0 -0 -1)
(0.82142 -0.570324 0)
(0 -0 -1)
(0.778643 -0.627468 0)
(0 -0 -1)
(0.731895 -0.681418 0)
(0 -0 -1)
(0.681418 -0.731895 0)
(0 0 -1)
(0.627468 -0.778643 0)
(0 0 -1)
(0.570324 -0.82142 0)
(0 0 -1)
(0.510266 -0.860017 0)
(0 0 -1)
(0.447622 -0.894223 0)
(0 0 -1)
(0.382681 -0.92388 0)
(0 0 -1)
(0.315798 -0.948826 0)
(0 0 -1)
(0.247308 -0.968937 0)
(0 0 -1)
(0.177557 -0.984111 0)
(0 0 -1)
(0.106891 -0.994271 0)
(0 0 -1)
(0.0356943 -0.999363 0)
(0 0 -1)
(-0.0356943 -0.999363 -0)
(0 -0 -1)
(-0.106891 -0.994271 -0)
(0 -0 -1)
(-0.177557 -0.984111 -0)
(0 -0 -1)
(-0.247308 -0.968937 -0)
(0 -0 -1)
(-0.315798 -0.948826 -0)
(0 -0 -1)
(-0.382681 -0.92388 -0)
(0 -0 -1)
(-0.447622 -0.894223 -0)
(0 -0 -1)
(-0.510266 -0.860017 -0)
(0 -0 -1)
(-0.570324 -0.82142 -0)
(0 -0 -1)
(-0.627468 -0.778643 -0)
(0 -0 -1)
(-0.681418 -0.731895 -0)
(0 -0 -1)
(-0.731895 -0.681418 -0)
(0 -0 -1)
(-0.778643 -0.627468 -0)
(0 -0 -1)
(-0.82142 -0.570324 -0)
(0 -0 -1)
(-0.860017 -0.510266 -0)
(0 -0 -1)
(-0.894223 -0.447622 -0)
(0 -0 -1)
(-0.92388 -0.382681 -0)
(0 -0 -1)
(-0.948826 -0.315798 -0)
(0 0 -1)
(-0.968937 -0.247308 -0)
(0 0 -1)
(-0.984111 -0.177557 -0)
(0 0 -1)
(-0.994271 -0.106891 -0)
(0 0 -1)
(-0.999363 -0.0356943 -0)
(0 0 -1)
(-0.999363 0.0356943 0)
(0 0 -1)
(-0.994271 0.106891 0)
(0 0 -1)
(-0.984111 0.177557 0)
(0 0 -1)
(-0.968937 0.247308 0)
(0 0 -1)
(-0.948826 0.315798 0)
(0 0 -1)
(-0.92388 0.382681 0)
(0 0 -1)
(-0.894223 0.447622 0)
(0 0 -1)
(-0.860017 0.510266 0)
(0 0 -1)
(-0.82142 0.570324 0)
(0 0 -1)
(-0.778643 0.627468 0)
(0 0 -1)
(-0.731895 0.681418 0)
(0 0 -1)
(-0.681418 0.731895 0)
(0 0 -1)
(-0.627468 0.778643 0)
(0 0 -1)
(-0.570324 0.82142 0)
(0 0 -1)
(-0.510266 0.860017 0)
(0 0 -1)
(-0.447622 0.894223 0)
(0 0 -1)
(-0.382681 0.92388 0)
(0 0 -1)
(-0.315798 0.948826 0)
(0 0 -1)
(-0.247308 0.968937 0)
(0 0 -1)
(-0.177557 0.984111 0)
(0 0 -1)
(-0.106891 0.994271 0)
(0 0 -1)
(-0.0356943 0.999363 0)
(0 0 -1)
(0.0356943 0.999363 0)
(0 -0 -1)
(0.106891 0.994271 0)
(0 0 -1)
(0.177557 0.984111 0)
(0 0 -1)
(0.247308 0.968937 0)
(0 0 -1)
(0.315798 0.948826 0)
(0 0 -1)
(0.382681 0.92388 0)
(0 0 -1)
(0.447622 0.894223 0)
(0 0 -1)
(0.510266 0.860017 0)
(0 0 -1)
(0.570324 0.82142 0)
(0 0 -1)
(0.627468 0.778643 0)
(0 0 -1)
(0.681418 0.731895 0)
(0 0 -1)
(0.731895 0.681418 0)
(0 0 -1)
(0.778643 0.627468 0)
(0 0 -1)
(0.82142 0.570324 0)
(0 0 -1)
(0.860017 0.510266 0)
(0 0 -1)
(0.894223 0.447622 0)
(0 0 -1)
(0.92388 0.382681 0)
(0 0 -1)
(0.948826 0.315798 0)
(0 0 -1)
(0.968937 0.247308 0)
(0 0 -1)
(0.984111 0.177557 0)
(0 0 -1)
(0.994271 0.106891 0)
(0 0 -1)
(0.999363 0.0356943 0)
(0 0 -1)
)

// normal volume types

712
(
0
0
0
0
0
0
0
0
0
0
0
0
0
0
0
0
0
0
0
0
0
0
0
0
0
0
0
0
0
0
0
0
0
0
0
0
0
0
0
0
0
0
0
0
0
0
0
0
0
0
0
0
0
0
0
0
0
0
0
0
0
0
0
0
0
0
0
0
0
0
0
0
0
0
0
0
0
0
0
0
0
0
0
0
0
0
0
0
0
0
0
0
0
0
0
0
0
0
0
0
0
0
0
0
0
0
0
0
0
0
0
0
0
0
0
0
0
0
0
0
0
0
0
0
0
0
0
0
0
0
0
0
0
0
0
0
0
0
0
0
0
0
0
0
0
0
0
0
0
0
0
0
0
0
0
0
0
0
0
0
0
0
0
0
0
0
0
0
0
0
0
0
0
0
0
0
0
0
0
0
0
0
0
0
0
0
0
0
0
0
0
0
0
0
0
0
0
0
0
0
0
0
0
0
0
0
0
0
0
0
0
0
0
0
0
0
0
0
0
0
0
0
0
0
0
0
0
0
0
0
0
0
0
0
0
0
0
0
0
0
0
0
0
0
0
0
0
0
0
0
0
0
0
0
0
0
0
0
0
0
0
0
0
0
0
0
0
0
0
0
0
0
0
0
0
0
0
0
0
0
0
0
0
0
0
0
0
0
0
0
0
0
0
0
0
0
0
0
0
0
0
0
0
0
0
0
0
0
0
0
0
0
0
0
0
0
0
0
0
0
0
0
0
0
0
0
0
0
0
0
0
0
0
0
0
0
0
0
0
0
0
0
0
0
0
0
0
0
0
0
0
0
0
0
0
0
0
0
0
0
0
0
0
0
0
0
0
0
0
0
0
0
0
0
0
0
0
0
0
0
0
0
0
0
0
0
0
0
0
0
0
0
0
0
0
0
0
0
0
0
0
0
0
0
0
0
0
0
0
0
0
0
0
0
0
0
0
0
0
0
0
0
0
0
0
0
0
0
0
0
0
0
0
0
0
0
0
0
0
0
0
0
0
0
0
0
0
0
0
0
0
0
0
0
0
0
0
0
0
0
0
0
0
0
0
0
0
0
0
0
0
0
0
0
0
0
0
0
0
0
0
0
0
0
0
0
0
0
0
0
0
0
0
0
0
0
0
0
0
0
0
0
0
0
0
0
0
0
0
0
0
0
0
0
0
0
0
0
0
0
0
0
0
0
0
0
0
0
0
0
0
0
0
0
0
0
0
0
0
0
0
0
0
0
0
0
0
0
0
0
0
0
0
0
0
0
0
0
0
0
0
0
0
0
0
0
0
0
0
0
0
0
0
0
0
0
0
0
0
0
0
0
0
0
0
0
0
0
0
0
0
0
0
0
0
0
0
0
0
0
0
0
0
0
0
0
0
0
0
0
0
0
0
0
0
0
0
0
0
0
0
0
0
0
0
0
0
0
0
0
0
0
0
0
0
0
0
0
0
0
0
0
0
0
0
0
0
0
0
0
0
0
0
0
0
0
0
0
0
0
0
0
0
0
0
0
0
0
0
0
0
0
0
0
0
0
0
0
0
0
0
0
0
0
0
0
0
0
0
0
0
0
0
0
0
0
0
0
0
0
0
0
0
0
0
0
0
0
0
0
0
0
)

// normalDirections

382
(
2(1 -1)
2(1 -1)
2(1 -1)
2(1 -1)
2(1 -1)
2(1 -1)
2(1 -1)
2(1 -1)
2(1 -1)
2(1 -1)
2(1 -1)
2(1 -1)
2(1 -1)
2(1 -1)
2(1 -1)
2(1 -1)
2(1 -1)
2(1 -1)
2(1 -1)
2(1 -1)
2(1 -1)
2(1 -1)
2(1 -1)
2(1 -1)
2(1 -1)
2(1 -1)
2(1 -1)
2(1 -1)
2(1 -1)
2(1 -1)
2(1 -1)
2(1 -1)
2(1 -1)
2(1 -1)
2(1 -1)
2(1 -1)
2(1 -1)
2(1 -1)
2(1 -1)
2(1 -1)
2(1 -1)
2(1 -1)
2(1 -1)
2(1 -1)
2(1 -1)
2(1 -1)
2(1 -1)
2(1 -1)
2(1 -1)
2(1 -1)
2(1 -1)
2(1 -1)
2(1 -1)
2(1 -1)
2(1 -1)
2(1 -1)
2(1 -1)
2(1 -1)
2(1 -1)
2(1 -1)
2(1 -1)
2(1 -1)
2(1 -1)
2(1 -1)
2(1 -1)
2(1 -1)
2(1 -1)
2(1 -1)
2(1 -1)
2(1 -1)
2(1 -1)
2(1 -1)
2(1 -1)
2(1 -1)
2(1 -1)
2(1 -1)
2(1 -1)
2(1 -1)
2(1 -1)
2(1 -1)
2(1 -1)
2(1 -1)
2(1 -1)
2(1 -1)
2(1 -1)
2(1 -1)
2(1 -1)
2(1 -1)
2(1 -1)
2(1 -1)
2(1 -1)
2(1 -1)
2(1 -1)
2(1 -1)
2(1 -1)
2(1 -1)
2(1 -1)
2(1 -1)
2(1 -1)
2(1 -1)
2(1 -1)
2(1 -1)
2(1 -1)
2(1 -1)
2(1 -1)
2(1 -1)
2(1 -1)
2(1 -1)
2(1 -1)
2(1 -1)
2(1 -1)
2(1 -1)
2(1 -1)
2(1 -1)
2(1 -1)
2(1 -1)
2(1 -1)
2(1 -1)
2(1 -1)
2(1 -1)
2(1 -1)
2(1 -1)
2(1 -1)
2(1 -1)
2(1 -1)
2(1 -1)
2(1 -1)
2(1 -1)
2(1 -1)
2(1 -1)
2(1 -1)
2(1 -1)
2(1 -1)
2(1 -1)
2(1 -1)
2(1 -1)
2(1 -1)
2(1 -1)
2(1 -1)
2(1 -1)
2(1 -1)
2(1 -1)
2(1 -1)
2(1 -1)
2(1 -1)
2(1 -1)
2(1 -1)
2(1 -1)
2(1 -1)
2(1 -1)
2(1 -1)
2(1 -1)
2(1 -1)
2(1 -1)
2(1 -1)
2(1 -1)
2(1 -1)
2(1 -1)
2(1 -1)
2(1 -1)
2(1 -1)
2(1 -1)
2(1 -1)
2(1 -1)
2(1 -1)
2(1 -1)
2(1 -1)
2(1 -1)
2(1 -1)
2(1 -1)
2(1 -1)
2(1 -1)
2(1 -1)
2(1 -1)
2(1 -1)
2(1 -1)
2(1 -1)
2(1 -1)
2(1 -1)
2(1 -1)
2(1 -1)
2(1 -1)
2(1 -1)
2(1 -1)
2(1 -1)
2(1 -1)
2(1 -1)
2(1 -1)
2(1 -1)
2(1 -1)
2(1 -1)
2(1 -1)
2(1 -1)
2(1 -1)
2(1 -1)
2(1 -1)
2(1 -1)
2(1 -1)
2(1 -1)
2(1 -1)
2(1 -1)
2(1 -1)
2(1 -1)
2(1 -1)
2(1 -1)
2(1 -1)
2(1 -1)
2(1 -1)
2(1 -1)
2(1 -1)
2(1 -1)
2(1 -1)
2(1 -1)
2(1 -1)
2(1 -1)
2(1 -1)
2(1 -1)
2(1 -1)
2(1 -1)
2(1 -1)
2(1 -1)
2(1 -1)
2(1 -1)
2(1 -1)
2(1 -1)
2(1 -1)
2(1 -1)
2(1 -1)
2(1 -1)
2(1 -1)
2(1 -1)
2(1 -1)
2(1 -1)
2(1 -1)
2(1 -1)
2(1 -1)
2(1 -1)
2(1 -1)
2(1 -1)
2(1 -1)
2(1 -1)
2(1 -1)
2(1 -1)
2(1 -1)
2(1 -1)
2(1 -1)
2(1 -1)
2(1 -1)
2(1 -1)
2(1 -1)
2(1 -1)
2(1 -1)
2(1 -1)
2(1 -1)
2(1 -1)
2(1 -1)
2(1 -1)
2(1 -1)
2(1 -1)
2(1 -1)
2(1 -1)
2(1 -1)
2(1 -1)
2(1 -1)
2(1 -1)
2(1 -1)
2(1 -1)
2(1 -1)
2(1 -1)
2(1 -1)
2(1 -1)
2(1 -1)
2(1 -1)
2(1 -1)
2(1 -1)
2(1 -1)
2(1 -1)
2(1 -1)
2(1 -1)
2(1 -1)
2(1 -1)
2(1 -1)
2(1 -1)
2(1 -1)
2(1 -1)
2(1 -1)
2(1 -1)
2(1 -1)
2(1 -1)
2(1 -1)
2(1 -1)
2(1 -1)
2(1 -1)
2(1 -1)
2(1 -1)
2(1 -1)
2(1 -1)
2(1 -1)
2(1 -1)
2(1 -1)
2(1 -1)
2(1 -1)
2(1 -1)
2(1 -1)
2(1 -1)
2(1 -1)
2(1 -1)
2(1 -1)
2(1 -1)
2(1 -1)
2(1 -1)
2(1 -1)
2(1 -1)
2(1 -1)
2(1 -1)
2(1 -1)
2(1 -1)
2(1 -1)
2(1 -1)
2(1 -1)
2(1 -1)
2(1 -1)
2(1 -1)
2(1 -1)